*Heading
** Job name: Job-1205-soil Model name: Model-1
** Generated by: Abaqus/CAE 2016
*Preprint, echo=NO, model=NO, history=NO, contact=NO
**
** PARTS
**
*Part, name=bed-rock
*End Part
**  
*Part, name=c1
*End Part
**  
*Part, name=c2
*End Part
**  
*Part, name=c3
*End Part
**  
*Part, name=up-soil
*End Part
**  
**
** ASSEMBLY
**
*Assembly, name=Assembly
**  
*Instance, name=bed-rock-1, part=bed-rock
*Node
      1,        -130.,           0.
      2,        -128.,           0.
      3,        -126.,           0.
      4,        -124.,           0.
      5,        -122.,           0.
      6,        -120.,           0.
      7,        -118.,           0.
      8,        -116.,           0.
      9,        -114.,           0.
     10,        -112.,           0.
     11,        -110.,           0.
     12,        -108.,           0.
     13,        -106.,           0.
     14,        -104.,           0.
     15,        -102.,           0.
     16,        -100.,           0.
     17,         -98.,           0.
     18,         -96.,           0.
     19,         -94.,           0.
     20,         -92.,           0.
** ... 504 like lines cut
*Element, type=CPE4P
  1,   1,   2, 133, 132
  2,   2,   3, 134, 133
  3,   3,   4, 135, 134
  4,   4,   5, 136, 135
  5,   5,   6, 137, 136
  6,   6,   7, 138, 137
  7,   7,   8, 139, 138
  8,   8,   9, 140, 139
  9,   9,  10, 141, 140
 10,  10,  11, 142, 141
 11,  11,  12, 143, 142
 12,  12,  13, 144, 143
 13,  13,  14, 145, 144
 14,  14,  15, 146, 145
 15,  15,  16, 147, 146
 16,  16,  17, 148, 147
 17,  17,  18, 149, 148
 18,  18,  19, 150, 149
 19,  19,  20, 151, 150
 20,  20,  21, 152, 151
** ... 370 like lines cut
*Nset, nset=_PickedSet2, internal, generate
   1,  524,    1
*Elset, elset=_PickedSet2, internal, generate
   1,  390,    1
** Section: Section-1
*Solid Section, elset=_PickedSet2, material=Material-1
1.,
*End Instance
**  
*Instance, name=up-soil-1, part=up-soil
*Node
      1,   96.1364594,          28.
      2,   96.1364594,           6.
      3,         130.,           6.
      4,         130.,          28.
      5,  -106.603539,           6.
      6,  -106.603539,          28.
      7,        -130.,          28.
      8,        -130.,           6.
      9,   34.0064583,          20.
     10,   34.0064583,           6.
     11,   63.4364586,           6.
     12,   63.4364586,          20.
     13,  -80.4435425,           6.
     14,  -80.4435425,          28.
     15,   4.57645893,          20.
     16,   4.57645893,           6.
     17,         130.,          39.
     18,         107.,          39.
     19,          93.,          39.
     20,          86.,          31.
** ... 2881 like lines cut
*Element, type=CPE4P
  1,    1,   57,  898,  106
  2,   57,   58,  899,  898
  3,   58,   59,  900,  899
  4,   59,   60,  901,  900
  5,   60,   61,  902,  901
  6,   61,   62,  903,  902
  7,   62,   63,  904,  903
  8,   63,   64,  905,  904
  9,   64,   65,  906,  905
 10,   65,   66,  907,  906
 11,   66,    2,   67,  907
 12,  106,  898,  908,  105
 13,  898,  899,  909,  908
 14,  899,  900,  910,  909
 15,  900,  901,  911,  910
 16,  901,  902,  912,  911
 17,  902,  903,  913,  912
 18,  903,  904,  914,  913
 19,  904,  905,  915,  914
 20,  905,  906,  916,  915
** ... 2732 like lines cut
*Nset, nset=_PickedSet7, internal
   17,   18,   19,   20,   21,   24,   25,   27,   45,   48,   49,   52,   53,   54,  255,  256
  257,  258,  259,  260,  261,  262,  263,  264,  265,  266,  267,  268,  269,  270,  271,  272
  273,  274,  275,  276,  277,  278,  279,  280,  281,  282,  283,  284,  285,  286,  287,  288
  289,  290,  291,  292,  293,  316,  317,  318,  319,  320,  321,  322,  323,  324,  325,  326
  327,  328,  329,  330,  331,  332,  333,  334,  335,  336,  341,  342,  530,  531,  532,  533
  534,  535,  536,  537,  538,  539,  540,  541,  542,  543,  544,  545,  546,  547,  548,  549
  551,  552,  553,  554,  555,  556,  557,  567,  568,  569,  570,  571,  572,  573,  574,  575
  576,  577,  578,  579,  580,  581,  582,  583,  584,  585,  586,  587,  588,  589,  590,  591
  592,  593,  594,  595,  596,  597,  598,  599,  600,  601,  602,  603,  604,  605,  606,  621
  622,  623,  624,  625,  626,  627,  628,  629,  630,  631,  632,  633,  634,  635,  636,  637
  638,  639,  640,  641,  642,  643,  644,  645,  646,  647,  648,  649,  650,  651,  652,  653
  655,  656,  657,  658,  659,  660,  661,  662,  663,  664,  665,  666,  667,  668,  669,  670
  671,  672,  673,  674,  675,  676,  677,  678,  679,  680,  681,  682,  683,  684,  685,  686
  687,  688,  689,  690,  691,  692,  693,  694,  695,  696,  697,  698,  699,  700,  701,  702
  703,  704,  705,  706,  707,  708,  709,  710,  711,  712,  713,  714,  715,  716,  717,  718
  719,  720,  721,  722,  723,  724,  725,  726,  727,  728,  729,  730,  731,  732,  733,  734
  735,  736,  737,  738,  739,  740,  741,  742,  743,  744,  745,  746,  747,  748, 1436, 1437
 1438, 1439, 1440, 1441, 1442, 1443, 1444, 1445, 1446, 1447, 1448, 1449, 1450, 1451, 1452, 1453
 1454, 1455, 1456, 1457, 1458, 1459, 1460, 1461, 1462, 1463, 1464, 1465, 1466, 1467, 1468, 1469
 1470, 1471, 1472, 1473, 1474, 1475, 1476, 1477, 1478, 1479, 1480, 1481, 1482, 1483, 1484, 1485
** ... 28 like lines cut
*Elset, elset=_PickedSet7, internal
  651,  652,  653,  654,  655,  656,  657,  658,  659,  660,  661,  662,  663,  664,  665,  666
  667,  668,  669,  670,  671,  672,  673,  674,  675,  676,  677,  678,  679,  680,  681,  682
  683,  684,  685,  686,  687,  688,  689,  690,  691,  692,  693,  694,  695,  696,  697,  698
  699,  700,  701,  702,  703,  704,  705,  706,  707,  708,  709,  710,  711,  712,  713,  714
  715,  716,  717,  718,  719,  720,  721,  722,  723,  724,  725,  726,  727,  728,  729,  730
  731,  732,  733,  734,  735, 1388, 1389, 1390, 1391, 1392, 1393, 1394, 1395, 1396, 1397, 1398
 1399, 1400, 1401, 1402, 1403, 1404, 1405, 1406, 1407, 1408, 1409, 1410, 1411, 1412, 1413, 1414
 1415, 1416, 1417, 1418, 1419, 1420, 1421, 1422, 1423, 1424, 1425, 1426, 1427, 1428, 1429, 1430
 1431, 1432, 1433, 1434, 1435, 1436, 1437, 1438, 1439, 1440, 1441, 1442, 1443, 1444, 1445, 1446
 1447, 1448, 1449, 1450, 1451, 1452, 1453, 1454, 1455, 1456, 1457, 1458, 1459, 1460, 1461, 1462
 1463, 1464, 1465, 1466, 1467, 1468, 1469, 1470, 1471, 1472, 1473, 1474, 1475, 1476, 1477, 1478
 1479, 1480, 1481, 1482, 1483, 1484, 1485, 1486, 1487, 1488, 1489, 1490, 1491, 1492, 1493, 1494
 1495, 1496, 1497, 1498, 1499, 1500, 1501, 1502, 1503, 1504, 1505, 1506, 1507, 1508, 1509, 1510
 1511, 1512, 1513, 1514, 1515, 1516, 1517, 1518, 1519, 1520, 1521, 1522, 1523, 1524, 1525, 1526
 1527, 1528, 1529, 1530, 1531, 1532, 1533, 1534, 1535, 1536, 1537, 1853, 1854, 1855, 1856, 1857
 1858, 1859, 1860, 1861, 1862, 1863, 1864, 1865, 1866, 1867, 1868, 1869, 1870, 1871, 1872, 1873
 1874, 1875, 1876, 1877, 1878, 1879, 1880, 1881, 1882, 1883, 1884, 1885, 1886, 1887, 1888, 1889
 1890, 1891, 1892, 1893, 1894, 1895, 1896, 1897, 1898, 1899, 1900, 1901, 1902, 1903, 1904, 1905
 1906, 1907, 1908, 1909, 1910, 1911, 1912, 1913, 1914, 1915, 1916, 1917, 1918, 1919, 1920, 1921
 1922, 1923, 1924, 1925, 1926, 1927, 1928, 1929, 1930, 1931, 1932, 1933, 1934, 1935, 1936, 1937
** ... 20 like lines cut
*Nset, nset=_PickedSet8, internal
    1,    4,    6,    7,   14,   20,   21,   22,   23,   24,   25,   26,   27,   28,   49,   52
   53,   92,   93,   94,   95,   96,   97,   98,   99,  100,  101,  102,  103,  104,  105,  106
  117,  118,  119,  120,  121,  122,  123,  124,  125,  126,  127,  199,  200,  201,  202,  203
  204,  205,  206,  207,  208,  209,  274,  275,  276,  277,  278,  279,  280,  281,  282,  283
  284,  285,  286,  287,  288,  289,  294,  295,  296,  297,  298,  299,  300,  301,  302,  303
  304,  305,  306,  307,  308,  309,  310,  311,  312,  313,  314,  315,  316,  317,  318,  319
  320,  321,  322,  323,  324,  325,  326,  327,  328,  329,  330,  331,  332,  333,  334,  335
  336,  337,  338,  339,  340,  341,  342,  343,  344,  345,  346,  347,  348,  349,  350,  351
  352,  353,  354,  355,  356,  357,  358,  359,  360,  361,  362,  363,  364,  365,  366,  367
  368,  369,  370,  371,  372,  373,  374,  375,  376,  377,  378,  379,  380,  381,  382,  550
  551,  552,  553,  554,  555,  556,  557,  558,  559,  560,  561,  562,  563,  564,  565,  566
  567,  568,  569,  570,  571,  572,  573,  574,  575,  576,  577,  578,  579,  580,  581,  582
  583,  584,  585,  586,  587,  588,  589,  590,  591,  592,  593,  594,  595,  596,  597,  598
  599,  600,  601,  602,  603,  604,  605,  606,  611,  612,  613,  614,  615,  616,  617,  618
  619,  620,  621,  622,  623,  624,  625,  626,  627,  628,  629,  630,  631,  632,  633,  634
  635,  636,  637,  638,  639,  640,  641,  642,  643,  644,  645,  646,  647,  648,  649,  650
  651,  652,  653,  654, 1500, 1501, 1502, 1503, 1504, 1505, 1506, 1507, 1508, 1509, 1510, 1511
 1512, 1513, 1514, 1515, 1516, 1517, 1518, 1519, 1520, 1521, 1522, 1739, 1740, 1741, 1742, 1743
 1744, 1745, 1746, 1747, 1748, 1749, 1750, 1751, 1752, 1753, 1754, 1755, 1756, 1757, 1758, 1759
 1760, 1761, 1762, 1763, 1764, 1765, 1766, 1767, 1768, 1769, 1770, 1771, 1772, 1773, 1774, 1775
** ... 4 like lines cut
*Elset, elset=_PickedSet8, internal
  736,  737,  738,  739,  740,  741,  742,  743,  744,  745,  746,  747,  748,  749,  750,  751
  752,  753,  754,  755,  756,  757,  758,  759,  760,  761,  762,  763,  764,  765,  766,  767
  768,  769,  770,  771,  772,  773,  774,  775,  776,  777,  778,  779,  780,  781,  782,  783
  784,  785, 1161, 1162, 1163, 1164, 1165, 1166, 1167, 1168, 1169, 1170, 1171, 1172, 1173, 1174
 1175, 1176, 1177, 1178, 1179, 1180, 1181, 1182, 1183, 1184, 1185, 1186, 1187, 1188, 1189, 1190
 1191, 1192, 1193, 1194, 1195, 1196, 1197, 1198, 1199, 1200, 1201, 1202, 1203, 1204, 1205, 1206
 1207, 1208, 1209, 1210, 1211, 1212, 1213, 1214, 1215, 1216, 1217, 1218, 1219, 1220, 1221, 1222
 1223, 1224, 1225, 1226, 1227, 1228, 1229, 1230, 1231, 1232, 1233, 1234, 1235, 1236, 1237, 1238
 1239, 1240, 1241, 1242, 1243, 1244, 1245, 1246, 1247, 1248, 1249, 1250, 1251, 1252, 1253, 1254
 1255, 1256, 1257, 1258, 1259, 1260, 1261, 1262, 1263, 1264, 1265, 1266, 1267, 1268, 1269, 1270
 1271, 1272, 1273, 1274, 1275, 1276, 1277, 1278, 1279, 1280, 1281, 1282, 1283, 1284, 1285, 1286
 1287, 1288, 1289, 1290, 1291, 1292, 1318, 1319, 1320, 1321, 1322, 1323, 1324, 1325, 1326, 1327
 1328, 1329, 1330, 1331, 1332, 1333, 1334, 1335, 1336, 1337, 1338, 1339, 1340, 1341, 1342, 1343
 1344, 1345, 1346, 1347, 1348, 1349, 1350, 1351, 1352, 1353, 1354, 1355, 1356, 1357, 1358, 1359
 1360, 1361, 1362, 1363, 1364, 1365, 1366, 1367, 1368, 1369, 1370, 1371, 1372, 1373, 1374, 1375
 1376, 1377, 1378, 1379, 1380, 1381, 1382, 1383, 1384, 1385, 1386, 1387
*Nset, nset=_PickedSet10, internal
    1,    2,    3,    4,    5,    6,    7,    8,    9,   10,   11,   12,   13,   14,   15,   16
   22,   23,   26,   28,   29,   30,   31,   32,   33,   34,   35,   36,   37,   38,   39,   40
   41,   42,   43,   44,   50,   51,   57,   58,   59,   60,   61,   62,   63,   64,   65,   66
   67,   68,   69,   70,   71,   72,   73,   74,   75,   76,   77,   78,   79,   80,   81,   82
   83,   84,   85,   86,   87,   88,   89,   90,   91,   92,   93,   94,   95,   96,   97,   98
   99,  100,  101,  102,  103,  104,  105,  106,  107,  108,  109,  110,  111,  112,  113,  114
  115,  116,  117,  118,  119,  120,  121,  122,  123,  124,  125,  126,  127,  128,  129,  130
  131,  132,  133,  134,  135,  136,  137,  138,  139,  140,  141,  142,  143,  144,  145,  146
  147,  148,  149,  150,  151,  152,  153,  154,  155,  156,  157,  158,  159,  160,  161,  162
  163,  164,  165,  166,  167,  168,  169,  170,  171,  172,  173,  174,  175,  176,  177,  178
  179,  180,  181,  182,  183,  184,  185,  186,  187,  188,  189,  190,  191,  192,  193,  194
  195,  196,  197,  198,  199,  200,  201,  202,  203,  204,  205,  206,  207,  208,  209,  210
  211,  212,  213,  214,  215,  216,  217,  218,  219,  220,  221,  222,  223,  224,  225,  226
  227,  228,  229,  230,  231,  232,  233,  234,  235,  236,  237,  238,  239,  240,  241,  242
  243,  244,  245,  246,  247,  248,  249,  250,  251,  252,  253,  254,  294,  295,  296,  297
  298,  299,  300,  301,  302,  303,  304,  305,  306,  307,  308,  309,  310,  311,  312,  313
  314,  338,  339,  343,  344,  345,  346,  347,  348,  349,  350,  351,  352,  353,  354,  355
  356,  357,  358,  359,  360,  361,  362,  363,  364,  365,  366,  367,  368,  369,  370,  371
  372,  373,  374,  375,  376,  377,  378,  379,  380,  381,  382,  383,  384,  385,  386,  387
  388,  389,  390,  391,  392,  393,  394,  395,  396,  397,  398,  399,  400,  401,  402,  403
** ... 82 like lines cut
*Elset, elset=_PickedSet10, internal
    1,    2,    3,    4,    5,    6,    7,    8,    9,   10,   11,   12,   13,   14,   15,   16
   17,   18,   19,   20,   21,   22,   23,   24,   25,   26,   27,   28,   29,   30,   31,   32
   33,   34,   35,   36,   37,   38,   39,   40,   41,   42,   43,   44,   45,   46,   47,   48
   49,   50,   51,   52,   53,   54,   55,   56,   57,   58,   59,   60,   61,   62,   63,   64
   65,   66,   67,   68,   69,   70,   71,   72,   73,   74,   75,   76,   77,   78,   79,   80
   81,   82,   83,   84,   85,   86,   87,   88,   89,   90,   91,   92,   93,   94,   95,   96
   97,   98,   99,  100,  101,  102,  103,  104,  105,  106,  107,  108,  109,  110,  111,  112
  113,  114,  115,  116,  117,  118,  119,  120,  121,  122,  123,  124,  125,  126,  127,  128
  129,  130,  131,  132,  133,  134,  135,  136,  137,  138,  139,  140,  141,  142,  143,  144
  145,  146,  147,  148,  149,  150,  151,  152,  153,  154,  155,  156,  157,  158,  159,  160
  161,  162,  163,  164,  165,  166,  167,  168,  169,  170,  171,  172,  173,  174,  175,  176
  177,  178,  179,  180,  181,  182,  183,  184,  185,  186,  187,  188,  189,  190,  191,  192
  193,  194,  195,  196,  197,  198,  199,  200,  201,  202,  203,  204,  205,  206,  207,  208
  209,  210,  211,  212,  213,  214,  215,  216,  217,  218,  219,  220,  221,  222,  223,  224
  225,  226,  227,  228,  229,  230,  231,  232,  233,  234,  235,  236,  237,  238,  239,  240
  241,  242,  243,  244,  245,  246,  247,  248,  249,  250,  251,  252,  253,  254,  255,  256
  257,  258,  259,  260,  261,  262,  263,  264,  265,  266,  267,  268,  269,  270,  271,  272
  273,  274,  275,  276,  277,  278,  279,  280,  281,  282,  283,  284,  285,  286,  287,  288
  289,  290,  291,  292,  293,  294,  295,  296,  297,  298,  299,  300,  301,  302,  303,  304
  305,  306,  307,  308,  309,  310,  311,  312,  313,  314,  315,  316,  317,  318,  319,  320
** ... 74 like lines cut
*Nset, nset=_PickedSet45, internal, generate
    1,  2901,     1
*Elset, elset=_PickedSet45, internal, generate
    1,  2752,     1
** Section: Section-1
*Solid Section, elset=_PickedSet45, material=Material-1
1.,
*End Instance
**  
*Instance, name=c1-1, part=c1
         -1.,           0.,           0.
*End Instance
**  
*Instance, name=c2-1, part=c2
         -1.,           0.,           0.
*End Instance
**  
*Instance, name=c3-1, part=c3
         0.5,           0.,           0.
*End Instance
**  
*Nset, nset=bottom, instance=bed-rock-1, generate
   1,  131,    1
*Elset, elset=bottom, instance=bed-rock-1, generate
   1,  130,    1
*Nset, nset=downup, instance=bed-rock-1, generate
 394,  524,    1
*Elset, elset=downup, instance=bed-rock-1, generate
 261,  390,    1
*Elset, elset=eall, instance=bed-rock-1, generate
   1,  390,    1
*Elset, elset=eall, instance=up-soil-1, generate
    1,  2752,     1
*Elset, elset=equivant-load, instance=up-soil-1
 1013, 1020, 1027, 1034, 1041, 1048, 1055, 1062, 1069, 1076, 1083, 1090, 1097, 2455, 2503, 2653
 2657, 2660
*Nset, nset=left, instance=bed-rock-1, generate
   1,  394,  131
*Nset, nset=left, instance=up-soil-1
   7,   8,  47,  48,  53, 128, 129, 130, 131, 132, 133, 134, 135, 136, 137, 528
 529, 654, 655, 656, 657, 658
*Elset, elset=left, instance=bed-rock-1, generate
   1,  261,  130
*Elset, elset=left, instance=up-soil-1
  298,  299,  300,  301,  302,  303,  304,  305,  306,  307,  308, 1158, 1159, 1160, 1318, 1353
 1388, 1389, 1390, 1391, 1392
*Nset, nset=nall, instance=bed-rock-1, generate
   1,  524,    1
*Nset, nset=nall, instance=up-soil-1, generate
    1,  2901,     1
*Nset, nset=right, instance=bed-rock-1, generate
 131,  524,  131
*Nset, nset=right, instance=up-soil-1
   3,   4,  17,  21,  56,  82,  83,  84,  85,  86,  87,  88,  89,  90,  91, 290
 291, 292, 293, 550, 845, 846
*Elset, elset=right, instance=bed-rock-1, generate
 130,  390,  130
*Elset, elset=right, instance=up-soil-1
  166,  167,  168,  169,  170,  171,  172,  173,  174,  175,  176,  651,  668,  685,  702,  719
 1161, 1162, 1832, 1842, 1852
*Nset, nset=upbottom, instance=up-soil-1
   2,   3,   5,   8,  10,  11,  13,  16,  43,  44,  67,  68,  69,  70,  71,  72
  73,  74,  75,  76,  77,  78,  79,  80,  81, 138, 139, 140, 141, 142, 143, 144
 145, 146, 147, 148, 155, 156, 157, 158, 159, 160, 161, 162, 163, 164, 165, 166
 167, 168, 210, 211, 212, 213, 214, 215, 216, 217, 218, 219, 220, 241, 242, 243
 244, 245, 246, 247, 248, 249, 250, 251, 252, 253, 254, 494, 495, 496, 497, 498
 499, 500, 501, 502, 503, 504, 505, 856, 857, 858, 859, 860, 861, 862, 863, 864
 865, 866, 867, 868, 869, 870, 871, 872, 873, 874, 875, 876, 877, 878, 879, 880
 881, 882, 883, 884, 885, 886, 887, 888, 889, 890, 891, 892, 893, 894, 895, 896
 897,
*Elset, elset=upbottom, instance=up-soil-1
   11,   22,   33,   44,   55,   66,   77,   88,   99,  110,  121,  132,  143,  154,  165,  176
  177,  188,  199,  210,  221,  232,  243,  254,  265,  276,  287,  298,  315,  322,  329,  336
  343,  350,  357,  364,  371,  378,  385,  392,  399,  406,  413,  414,  425,  436,  447,  458
  469,  480,  491,  502,  513,  524,  535,  546,  553,  560,  567,  574,  581,  588,  595,  602
  609,  616,  623,  630,  637,  644, 1007, 1014, 1021, 1028, 1035, 1042, 1049, 1056, 1063, 1070
 1077, 1084, 1091, 2254, 2255, 2258, 2259, 2264, 2265, 2267, 2268, 2270, 2273, 2279, 2299, 2304
 2305, 2307, 2310, 2426, 2428, 2430, 2442, 2444, 2445, 2449, 2450, 2452, 2474, 2475, 2481, 2482
 2485, 2490, 2492, 2628, 2632, 2635, 2639, 2642, 2643, 2645, 2658, 2678, 2682, 2691, 2692, 2695
*Nset, nset=_PickedSet175, internal, instance=up-soil-1
   18,   19,   45,   46,   54,   55,  264,  265,  266,  267,  268,  269,  506,  507,  663,  664
  665,  666,  667,  668,  669,  670,  671,  672,  673,  674,  675,  676,  677,  678,  679,  680
  681,  682,  683,  684,  685,  686,  687,  688,  689,  690,  691,  692,  693,  694,  695,  696
  697,  698,  699,  700,  701,  702,  703,  704,  705,  706,  707,  708,  709,  710,  711,  712
  713,  714,  715,  716,  717,  718,  719,  720,  721,  722,  723,  724,  725,  726,  727,  728
  729,  730,  731,  732,  733,  734,  735,  736,  737,  738,  739,  740,  741,  742,  743,  744
  745,  746,  747,  748,  749,  750,  751,  752,  753,  754,  755,  756,  757,  758,  759,  760
  761,  762,  763,  764,  765,  766,  767,  768,  769,  770,  771,  772,  773,  774,  775,  776
  777,  778,  779,  780,  781,  782,  783,  784,  785,  786,  787,  788,  789,  790,  791,  792
  793,  794,  795,  796,  797,  798,  799,  800,  801,  802,  803,  804,  805,  806,  807,  808
  809,  810,  811,  812,  813,  814,  815,  816,  817,  818,  819,  820,  821,  822,  823,  824
  825,  826,  827,  828,  829,  830,  831,  832,  833,  834,  835,  836,  837,  838,  839,  840
  841,  842,  843,  844, 1953, 1954, 1955, 1956, 1957, 1958, 1959, 1960, 1961, 1962, 1963, 1964
 1965, 1966, 1967, 1968, 1969, 1970, 1971, 1972, 1973, 1974, 1975, 1976, 1977, 1978, 1979, 1980
 1981, 1982, 1983, 1984, 1985, 1986, 1987, 1988, 1989, 1990, 1991, 1992, 1993, 1994, 1995, 1996
 1997, 1998, 1999, 2000, 2001, 2002, 2003, 2004, 2005, 2006, 2007, 2008, 2009, 2010, 2011, 2012
 2013, 2014, 2015, 2016, 2017, 2018, 2019, 2020, 2021, 2022, 2023, 2024, 2025, 2026, 2027, 2028
 2029, 2030, 2031, 2032, 2033, 2034, 2035, 2036, 2037, 2038, 2039, 2040, 2041, 2042, 2043, 2044
 2045, 2046, 2047, 2048, 2049, 2050, 2051, 2052, 2053, 2054, 2055, 2056, 2057, 2058, 2059, 2060
 2061, 2062, 2063, 2064, 2065, 2066, 2067, 2068, 2069, 2070, 2071, 2072, 2073, 2074, 2075, 2076
** ... 4 like lines cut
*Elset, elset=_PickedSet175, internal, instance=up-soil-1, generate
 1538,  1822,     1
*Nset, nset=_PickedSet176, internal, instance=up-soil-1
   19,   20,   24,   25,   27,   49,   52,   54,  270,  271,  272,  273,  316,  317,  318,  319
  320,  321,  322,  323,  324,  325,  326,  327,  328,  329,  330,  331,  332,  333,  334,  335
  336,  341,  342,  551,  552,  553,  554,  555,  556,  557,  567,  568,  569,  570,  571,  572
  573,  574,  575,  576,  577,  578,  579,  580,  581,  582,  583,  584,  585,  586,  587,  588
  589,  590,  591,  592,  593,  594,  595,  596,  597,  598,  599,  600,  601,  602,  603,  604
  605,  606,  650,  651,  652,  653,  659,  660,  661,  662,  671,  672,  673,  674,  675,  676
  677,  678,  679,  680,  681,  682,  683,  684,  685,  686,  687,  688,  689,  690,  691,  692
  693,  694,  695,  696,  697,  698,  699,  700,  701,  702,  703,  704,  705,  706,  707,  708
  709,  710,  711,  712,  713,  714,  715,  716,  717,  718,  719,  720,  721,  722,  723,  724
  725,  726,  727,  728,  729,  730,  731,  732,  733,  734,  735,  736,  737,  738,  739,  740
  741,  742,  743,  744,  745,  746,  747,  748, 2159, 2160, 2161, 2162, 2163, 2164, 2165, 2166
 2167, 2168, 2169, 2170, 2171, 2172, 2173, 2174, 2175, 2176, 2177, 2178, 2179, 2180, 2181, 2182
 2183, 2184, 2185, 2186, 2187, 2188, 2189, 2190, 2191, 2192, 2193, 2194, 2195, 2196, 2197, 2198
 2199, 2200, 2201, 2202, 2203, 2204, 2205, 2206, 2207, 2208, 2209, 2210, 2211, 2212, 2213, 2214
 2215, 2216, 2217, 2218, 2219, 2220, 2221, 2222, 2223, 2224, 2225, 2226, 2227, 2228, 2229, 2230
 2231, 2232, 2233, 2234, 2235, 2236, 2237, 2238, 2239, 2240, 2241, 2242, 2243, 2244, 2245, 2246
 2247, 2248, 2249, 2250, 2251, 2252, 2253, 2254, 2255, 2256, 2257, 2258, 2259, 2260, 2261, 2262
 2263, 2264, 2265, 2266, 2267, 2268, 2269, 2270, 2271, 2272, 2273, 2274, 2275, 2276, 2277, 2278
 2279, 2280, 2281, 2282, 2283, 2284, 2285, 2286, 2287, 2288, 2289, 2290, 2291, 2292, 2293, 2294
 2295, 2296, 2297, 2298, 2299, 2300, 2301, 2302, 2303, 2304, 2305, 2306, 2307, 2308, 2309, 2310
** ... 10 like lines cut
*Elset, elset=_PickedSet176, internal, instance=up-soil-1, generate
 1853,  2247,     1
*Nset, nset=_PickedSet177, internal, instance=up-soil-1
   22,   23,   24,   25,   26,   27,   28,   49,  294,  295,  296,  297,  298,  299,  300,  301
  302,  303,  304,  305,  306,  307,  308,  309,  310,  311,  312,  313,  314,  315,  316,  317
  318,  319,  320,  321,  322,  323,  324,  325,  326,  327,  328,  329,  330,  331,  332,  333
  334,  335,  336,  337,  340,  343,  344,  345,  346,  347,  348,  349,  350,  351,  352,  353
  354,  355,  356,  357,  358,  359,  360,  361,  362,  363,  364,  365,  366,  367,  368,  369
  370,  371,  372,  373,  374,  375,  376,  377,  378,  379,  380,  381,  382,  558,  567,  568
  569,  570,  571,  572,  573,  574,  575,  576,  577,  578,  579,  580,  581,  582,  583,  584
  585,  586,  587,  588,  589,  590,  591,  592,  593,  594,  595,  596,  597,  598,  599,  600
  601,  602,  603,  604,  605,  606, 1500, 1501, 1502, 1503, 1504, 1505, 1506, 1507, 1508, 1509
 1510, 1511, 1512, 1513, 1514, 1515, 1516, 1517, 1518, 1519, 1520, 1763, 1764, 1765, 1766, 1767
 1768, 1769, 1770, 1771, 1772, 1773, 1774, 1775, 1776, 1777, 1778, 1779, 1780, 1781, 1782, 1783
 1784, 1785, 1786, 1787, 1788, 1789, 1790, 1791, 1792, 1793, 1794, 1795, 1796, 1797, 1798, 1799
 1800, 1801, 1802
*Elset, elset=_PickedSet177, internal, instance=up-soil-1
  736,  737,  738,  739,  740,  741,  742,  743,  744,  745,  746,  747,  748,  749,  750,  751
  752,  753,  754,  755,  756,  757,  758,  759,  760,  761,  762,  763,  764,  765,  766,  767
  768,  769,  770,  771,  772,  773,  774,  775,  776,  777,  778,  779, 1211, 1212, 1213, 1214
 1215, 1216, 1217, 1218, 1219, 1220, 1221, 1222, 1223, 1224, 1225, 1226, 1227, 1228, 1229, 1230
 1231, 1232, 1233, 1234, 1235, 1236, 1237, 1238, 1239, 1240, 1241, 1242, 1243, 1244, 1245, 1246
 1247, 1248, 1249, 1250, 1251, 1252, 1253, 1254, 1255, 1256, 1257, 1258, 1259, 1260, 1261, 1262
 1263, 1264, 1265, 1266, 1267, 1268, 1269, 1270, 1271, 1272, 1273, 1274, 1275, 1276, 1277, 1278
 1279, 1280, 1281, 1282, 1283, 1284, 1285, 1286, 1287, 1288, 1289, 1290, 1291, 1292
*Nset, nset=_PickedSet178, internal, instance=up-soil-1
  22,  23,  26,  28,  29,  30,  31,  32,  41,  42,  50,  51, 294, 295, 296, 297
 298, 299, 300, 301, 302, 303, 304, 305, 306, 307, 308, 309, 310, 311, 312, 313
 314, 343, 344, 345, 346, 347, 348, 349, 350, 351, 352, 353, 354, 355, 356, 357
 358, 359, 360, 361, 362, 363, 364, 365, 366, 367, 368, 369, 370, 371, 372, 373
 374, 375, 376, 377, 378, 379, 380, 381, 382, 383, 384, 385, 386, 387, 388, 389
 390, 391, 392, 393, 394, 395, 396, 397, 398, 399, 400, 401, 402, 403, 404, 405
 406, 407, 408, 409, 410, 411, 412, 413, 414, 415, 416, 417, 418, 419, 420, 465
 466, 467, 468, 469, 470, 471, 472, 473, 474, 475, 476, 477, 478, 479, 480, 481
 609, 610
*Elset, elset=_PickedSet178, internal, instance=up-soil-1
  786,  787,  788,  789,  790,  791,  792,  793,  794,  795,  796,  797,  798,  799,  800,  801
  802,  803,  804,  805,  806,  807,  808,  809,  810,  811,  812,  813,  814,  815,  816,  817
  818,  819,  820,  821,  822,  823,  824,  825,  826, 1296, 1297, 1298, 1299, 1300, 1301, 1302
 1303, 1304, 1305, 1306, 1307, 1308, 1309, 1310, 1311, 1312, 1313, 1314, 1315, 1316, 1317
*Nset, nset=_PickedSet183, internal, instance=up-soil-1
    9,   12,   15,   29,   30,   39,   40,  175,  176,  177,  178,  179,  180,  181,  182,  183
  184,  185,  186,  187,  188,  221,  222,  223,  224,  225,  226,  227,  228,  229,  230,  231
  232,  233,  234,  384,  385,  386,  387,  388,  389,  390,  391,  392,  393,  394,  395,  396
  397,  398,  399,  400,  401,  402,  403,  404,  405,  406,  407,  408,  409,  410,  411,  412
  413,  414,  415,  416,  417,  418,  455,  456,  457,  458,  459,  460,  461,  462, 1540, 1541
 1542, 1543, 1544, 1545, 1546, 1547, 1548, 1549, 1550, 1551, 1552, 1553, 1554, 1555, 1556, 1557
 1558, 1559, 1560, 1561, 1562, 1563, 1564, 1565, 1566, 1567, 1568, 1569, 1570, 1571, 1572, 1573
 1574, 1575, 1576, 1577, 1578, 1579, 1580, 1581, 1582, 1583, 1584, 1585, 1586, 1587, 1588, 1589
 1590, 1591, 1592, 1593, 1594, 1595, 1596, 1597, 1598, 1599, 1600, 1601, 1602, 1603, 1604, 1605
 1606, 1607, 1608, 1609
*Elset, elset=_PickedSet183, internal, instance=up-soil-1, generate
 863,  970,    1
*Nset, nset=_PickedSet197, internal, instance=up-soil-1, generate
    1,  2901,     1
*Elset, elset=_PickedSet197, internal, instance=up-soil-1, generate
    1,  2752,     1
*Nset, nset=_PickedSet198, internal, instance=up-soil-1
   33,   38,   41,   42,  438,  439,  440,  441,  442,  443,  444,  445,  446,  447,  448,  449
  450,  451,  452,  453,  454,  463,  464,  465,  466,  467,  468,  469,  470,  471,  472,  473
  474,  475,  476,  477,  478,  479,  480,  481, 1610, 1611, 1612, 1613, 1614, 1615, 1616, 1617
 1618, 1619, 1620, 1621, 1622, 1623, 1624, 1625, 1626
*Elset, elset=_PickedSet198, internal, instance=up-soil-1, generate
  971,  1006,     1
*Nset, nset=_PickedSet199, internal, instance=up-soil-1
   33,   34,   35,   36,   37,   38,  421,  422,  423,  424,  425,  426,  427,  428,  429,  430
  431,  432,  433,  434,  435,  436,  437,  438,  439,  440,  441,  442,  443,  444,  445,  446
  447,  448,  449,  450,  451,  452,  453,  454, 1523, 1524, 1525, 1526, 1527, 1528, 1529, 1530
 1531, 1532, 1533, 1534, 1535, 1536, 1537, 1538, 1539
*Elset, elset=_PickedSet199, internal, instance=up-soil-1, generate
 827,  862,    1
*Nset, nset=_PickedSet205, internal, instance=up-soil-1, generate
    1,  2901,     1
*Elset, elset=_PickedSet205, internal, instance=up-soil-1, generate
    1,  2752,     1
*Nset, nset=_PickedSet215, internal, instance=bed-rock-1, generate
   1,  524,    1
*Nset, nset=_PickedSet215, internal, instance=up-soil-1, generate
    1,  2901,     1
*Elset, elset=_PickedSet215, internal, instance=bed-rock-1, generate
   1,  390,    1
*Elset, elset=_PickedSet215, internal, instance=up-soil-1, generate
    1,  2752,     1
*Nset, nset=_PickedSet216, internal, instance=bed-rock-1, generate
   1,  524,    1
*Elset, elset=_PickedSet216, internal, instance=bed-rock-1, generate
   1,  390,    1
*Nset, nset=_PickedSet259, internal, instance=up-soil-1
   33,   34,   35,   36,   37,   38,   41,   42,  421,  422,  423,  424,  425,  426,  427,  428
  429,  430,  431,  432,  433,  434,  435,  436,  437,  438,  439,  440,  441,  442,  443,  444
  445,  446,  447,  448,  449,  450,  451,  452,  453,  454,  463,  464,  465,  466,  467,  468
  469,  470,  471,  472,  473,  474,  475,  476,  477,  478,  479,  480,  481, 1523, 1524, 1525
 1526, 1527, 1528, 1529, 1530, 1531, 1532, 1533, 1534, 1535, 1536, 1537, 1538, 1539, 1610, 1611
 1612, 1613, 1614, 1615, 1616, 1617, 1618, 1619, 1620, 1621, 1622, 1623, 1624, 1625, 1626
*Elset, elset=_PickedSet259, internal, instance=up-soil-1
  827,  828,  829,  830,  831,  832,  833,  834,  835,  836,  837,  838,  839,  840,  841,  842
  843,  844,  845,  846,  847,  848,  849,  850,  851,  852,  853,  854,  855,  856,  857,  858
  859,  860,  861,  862,  971,  972,  973,  974,  975,  976,  977,  978,  979,  980,  981,  982
  983,  984,  985,  986,  987,  988,  989,  990,  991,  992,  993,  994,  995,  996,  997,  998
  999, 1000, 1001, 1002, 1003, 1004, 1005, 1006
*Nset, nset=_PickedSet260, internal, instance=up-soil-1
  46,  47,  55,  56, 508, 509, 510, 511, 512, 513, 514, 515, 516, 517, 518, 519
 520, 521, 522, 523, 524, 525, 526, 527, 751, 752, 753, 754, 755, 756, 757, 758
 759, 760, 761, 762, 763, 764, 765, 766, 767, 768, 769, 770, 771, 772, 773, 774
 775, 776, 777, 778, 779, 780, 781, 782, 783, 784, 785, 786, 787, 788, 789, 790
 791, 792, 793, 794, 795, 796, 797, 798, 799, 800, 801, 802, 803, 804, 805, 806
 807, 808, 809, 810, 811, 812, 813, 814, 815, 816, 817, 818, 819, 820, 821, 822
 823, 824, 825, 826, 827, 828, 829, 830, 831, 832, 833, 834, 835, 836, 837, 838
 839, 840, 841, 842, 843, 844, 847, 848, 849, 850, 851, 852, 853, 854, 855
*Elset, elset=_PickedSet260, internal, instance=up-soil-1
 1100, 1103, 1106, 1109, 1112, 1115, 1118, 1121, 1124, 1127, 1130, 1133, 1136, 1139, 1142, 1145
 1148, 1151, 1154, 1157, 1160, 1538, 1541, 1544, 1547, 1550, 1553, 1556, 1559, 1562, 1565, 1568
 1571, 1574, 1577, 1580, 1583, 1586, 1589, 1592, 1595, 1598, 1601, 1604, 1607, 1610, 1613, 1616
 1619, 1622, 1625, 1628, 1631, 1634, 1637, 1640, 1643, 1646, 1649, 1652, 1655, 1658, 1661, 1664
 1667, 1670, 1673, 1676, 1679, 1682, 1685, 1688, 1691, 1694, 1697, 1700, 1703, 1706, 1709, 1712
 1715, 1718, 1721, 1724, 1727, 1730, 1733, 1736, 1739, 1742, 1745, 1748, 1751, 1754, 1757, 1760
 1763, 1766, 1769, 1772, 1775, 1778, 1781, 1784, 1787, 1790, 1793, 1796, 1799, 1802, 1805, 1808
 1811, 1814, 1817, 1820, 1843, 1844, 1845, 1846, 1847, 1848, 1849, 1850, 1851, 1852
*Nset, nset=_PickedSet261, internal, instance=up-soil-1
  46,  47,  55,  56, 508, 509, 510, 511, 512, 513, 514, 515, 516, 517, 518, 519
 520, 521, 522, 523, 524, 525, 526, 527, 751, 752, 753, 754, 755, 756, 757, 758
 759, 760, 761, 762, 763, 764, 765, 766, 767, 768, 769, 770, 771, 772, 773, 774
 775, 776, 777, 778, 779, 780, 781, 782, 783, 784, 785, 786, 787, 788, 789, 790
 791, 792, 793, 794, 795, 796, 797, 798, 799, 800, 801, 802, 803, 804, 805, 806
 807, 808, 809, 810, 811, 812, 813, 814, 815, 816, 817, 818, 819, 820, 821, 822
 823, 824, 825, 826, 827, 828, 829, 830, 831, 832, 833, 834, 835, 836, 837, 838
 839, 840, 841, 842, 843, 844, 847, 848, 849, 850, 851, 852, 853, 854, 855
*Elset, elset=_PickedSet261, internal, instance=up-soil-1
 1100, 1103, 1106, 1109, 1112, 1115, 1118, 1121, 1124, 1127, 1130, 1133, 1136, 1139, 1142, 1145
 1148, 1151, 1154, 1157, 1160, 1538, 1541, 1544, 1547, 1550, 1553, 1556, 1559, 1562, 1565, 1568
 1571, 1574, 1577, 1580, 1583, 1586, 1589, 1592, 1595, 1598, 1601, 1604, 1607, 1610, 1613, 1616
 1619, 1622, 1625, 1628, 1631, 1634, 1637, 1640, 1643, 1646, 1649, 1652, 1655, 1658, 1661, 1664
 1667, 1670, 1673, 1676, 1679, 1682, 1685, 1688, 1691, 1694, 1697, 1700, 1703, 1706, 1709, 1712
 1715, 1718, 1721, 1724, 1727, 1730, 1733, 1736, 1739, 1742, 1745, 1748, 1751, 1754, 1757, 1760
 1763, 1766, 1769, 1772, 1775, 1778, 1781, 1784, 1787, 1790, 1793, 1796, 1799, 1802, 1805, 1808
 1811, 1814, 1817, 1820, 1843, 1844, 1845, 1846, 1847, 1848, 1849, 1850, 1851, 1852
*Nset, nset=_PickedSet263, internal, instance=bed-rock-1, generate
   1,  131,    1
*Elset, elset=_PickedSet263, internal, instance=bed-rock-1, generate
   1,  130,    1
*Elset, elset=_Surf-1_S3, internal, instance=up-soil-1
 300,
*Surface, type=ELEMENT, name=Surf-1
_Surf-1_S3, S3
*Elset, elset=_p1_S4, internal, instance=up-soil-1, generate
 177,  298,   11
*Surface, type=ELEMENT, name=p1
_p1_S4, S4
*Elset, elset=_p2_S4, internal, instance=up-soil-1, generate
 414,  535,   11
*Surface, type=ELEMENT, name=p2
_p2_S4, S4
*Elset, elset=_p3_S3, internal, instance=up-soil-1
 2426, 2430, 2442, 2444, 2445, 2449, 2452, 2492
*Elset, elset=_p3_S1, internal, instance=up-soil-1
 2428, 2450, 2474, 2475, 2481, 2485, 2490
*Elset, elset=_p3_S2, internal, instance=up-soil-1
 2482,
*Surface, type=ELEMENT, name=p3
_p3_S3, S3
_p3_S1, S1
_p3_S2, S2
*Elset, elset=_p4_S4, internal, instance=up-soil-1, generate
 1007,  1091,     7
*Surface, type=ELEMENT, name=p4
_p4_S4, S4
*Elset, elset=_p5_S2, internal, instance=up-soil-1
 2628, 2635, 2691, 2692
*Elset, elset=_p5_S4, internal, instance=up-soil-1
 2632, 2639, 2642, 2643, 2645, 2658, 2678, 2682, 2695
*Surface, type=ELEMENT, name=p5
_p5_S2, S2
_p5_S4, S4
*Elset, elset=_p6_S4, internal, instance=up-soil-1, generate
 546,  644,    7
*Surface, type=ELEMENT, name=p6
_p6_S4, S4
*Elset, elset=_p7_S2, internal, instance=up-soil-1, generate
 315,  413,    7
*Surface, type=ELEMENT, name=p7
_p7_S2, S2
*Elset, elset=_p8_S2, internal, instance=up-soil-1
 2254,
*Elset, elset=_p8_S3, internal, instance=up-soil-1
 2255, 2264, 2265, 2267, 2268
*Elset, elset=_p8_S1, internal, instance=up-soil-1
 2258, 2270, 2273, 2279, 2304, 2305, 2307, 2310
*Elset, elset=_p8_S4, internal, instance=up-soil-1
 2259, 2299
*Surface, type=ELEMENT, name=p8
_p8_S2, S2
_p8_S3, S3
_p8_S4, S4
_p8_S1, S1
*Elset, elset=_p9_S2, internal, instance=up-soil-1, generate
  11,  176,   11
*Surface, type=ELEMENT, name=p9
_p9_S2, S2
*Elset, elset=__PickedSurf203_S2, internal, instance=up-soil-1
   11,   22,   33,   44,   55,   66,   77,   88,   99,  110,  121,  132,  143,  154,  165,  176
  315,  322,  329,  336,  343,  350,  357,  364,  371,  378,  385,  392,  399,  406,  413, 2254
 2482, 2628, 2635, 2691, 2692
*Elset, elset=__PickedSurf203_S3, internal, instance=up-soil-1
 2255, 2264, 2265, 2267, 2268, 2426, 2430, 2442, 2444, 2445, 2449, 2452, 2492
*Elset, elset=__PickedSurf203_S1, internal, instance=up-soil-1
 2258, 2270, 2273, 2279, 2304, 2305, 2307, 2310, 2428, 2450, 2474, 2475, 2481, 2485, 2490
*Elset, elset=__PickedSurf203_S4, internal, instance=up-soil-1
  177,  188,  199,  210,  221,  232,  243,  254,  265,  276,  287,  298,  414,  425,  436,  447
  458,  469,  480,  491,  502,  513,  524,  535,  546,  553,  560,  567,  574,  581,  588,  595
  602,  609,  616,  623,  630,  637,  644, 1007, 1014, 1021, 1028, 1035, 1042, 1049, 1056, 1063
 1070, 1077, 1084, 1091, 2259, 2299, 2632, 2639, 2642, 2643, 2645, 2658, 2678, 2682, 2695
*Surface, type=ELEMENT, name=_PickedSurf203, internal
__PickedSurf203_S2, S2
__PickedSurf203_S3, S3
__PickedSurf203_S4, S4
__PickedSurf203_S1, S1
*Elset, elset=__PickedSurf204_S3, internal, instance=bed-rock-1, generate
 261,  390,    1
*Surface, type=ELEMENT, name=_PickedSurf204, internal
__PickedSurf204_S3, S3
*Nset, nset=left_PP_, internal, instance=bed-rock-1, generate
   1,  394,  131
*Nset, nset=left_PP_, internal, instance=up-soil-1
   7,   8,  47,  48,  53, 128, 129, 130, 131, 132, 133, 134, 135, 136, 137, 528
 529, 654, 655, 656, 657, 658
*Nset, nset=right_PP_, internal, instance=bed-rock-1, generate
 131,  524,  131
*Nset, nset=right_PP_, internal, instance=up-soil-1
   3,   4,  17,  21,  56,  82,  83,  84,  85,  86,  87,  88,  89,  90,  91, 290
 291, 292, 293, 550, 845, 846
*Nset, nset=_PickedSet260_PP_, internal, instance=up-soil-1
  46,  47,  55,  56, 508, 509, 510, 511, 512, 513, 514, 515, 516, 517, 518, 519
 520, 521, 522, 523, 524, 525, 526, 527, 751, 752, 753, 754, 755, 756, 757, 758
 759, 760, 761, 762, 763, 764, 765, 766, 767, 768, 769, 770, 771, 772, 773, 774
 775, 776, 777, 778, 779, 780, 781, 782, 783, 784, 785, 786, 787, 788, 789, 790
 791, 792, 793, 794, 795, 796, 797, 798, 799, 800, 801, 802, 803, 804, 805, 806
 807, 808, 809, 810, 811, 812, 813, 814, 815, 816, 817, 818, 819, 820, 821, 822
 823, 824, 825, 826, 827, 828, 829, 830, 831, 832, 833, 834, 835, 836, 837, 838
 839, 840, 841, 842, 843, 844, 847, 848, 849, 850, 851, 852, 853, 854, 855
*Nset, nset=_PickedSet263_PP_, internal, instance=bed-rock-1, generate
   1,  131,    1
*Enrichment, name=abc, type=PROPAGATION CRACK, elset=_PickedSet197, interaction=IntProp-1
*surface,type=xfem,name=efgh
abc 
*End Assembly
*Amplitude, name=volumerate
             0.,              0.,             63.,           -200.
** 
** MATERIALS
** 
*Material, name=Material-1
**Damage Initiation, criterion=MAXPS, tolerance=0.1
*Damage Initiation, criterion=MAXPS, position=CRACKTIP, tolerance=0.1
10,
*Damage Evolution, type=ENERGY, mixed mode behavior=POWER LAW, power=1.
0.01,0.01,0.01
*Damage Stabilization
1e-03
*Density
1500.,
*Elastic
 10e+06, 0.3
*Fluid Leakoff
 5.879e-16, 5.879e-16
*Gap Flow
 1e-06,
*Permeability, specific=10000.
 2.418e-05,0.
** 
** INTERACTION PROPERTIES
** 
*Surface Interaction, name=IntProp-1
1.,
*Friction, slip tolerance=0.005
 0.2,
*Initial Conditions, type=ENRICHMENT
up-soil-1.1007, 1,abc, 1.01646, -1.
up-soil-1.1007, 2,abc, 1.01646, 1.
up-soil-1.1007, 3,abc, -0.995848, 1.
up-soil-1.1007, 4,abc, -0.995848, -1.
up-soil-1.2307, 1,abc, -0.976044, -1.
up-soil-1.2307, 2,abc, 1.06771, -1.
up-soil-1.2307, 3,abc, 0.87915, 0.792534
up-soil-1.2307, 4,abc, -1.10934, 0.831522
up-soil-1.2695, 1,abc, 1.01492, -1.
up-soil-1.2695, 2,abc, 0.976195, 1.02634
up-soil-1.2695, 3,abc, -1.11517, 0.964817
up-soil-1.2695, 4,abc, -0.997387, -1.
** 
** BOUNDARY CONDITIONS
** 
** Name: BC-1 Type: Displacement/Rotation
*Boundary
left, 1, 1
** Name: BC-2 Type: Displacement/Rotation
*Boundary
right, 1, 1
** Name: BC-3 Type: Displacement/Rotation
*Boundary
bottom, 1, 1
bottom, 2, 2
** Name: BC-5 Type: Displacement/Rotation
*Boundary
downup, 2, 2
*Boundary,phantom=node
up-soil-1.505,2,2
up-soil-1.43,2,2
up-soil-1.892,2,2
up-soil-1.893,2,2
up-soil-1.857,2,2
up-soil-1.858,2,2
** 
** PREDEFINED FIELDS
** 
** Name: Predefined Field-1   Type: Geostatic stress
*Initial Conditions, type=STRESS, GEOSTATIC
_PickedSet205, 0., 44., -380000., 6., 0.6, 0.6
** Name: Predefined Field-2   Type: Geostatic stress
*Initial Conditions, type=STRESS, GEOSTATIC
_PickedSet216, -380000., 6., -440000., 0., 0.6, 0.6
** Name: Predefined Field-3   Type: Void ratio
*Initial Conditions, TYPE=RATIO
nall, 1.
** Name: Predefined Field-5   Type: Pore pressure Using Field: AnalyticalField-1
*Initial Conditions, TYPE=PORE PRESSURE
bed-rock-1.1, 440000.
bed-rock-1.2, 440000.
bed-rock-1.3, 440000.
bed-rock-1.4, 440000.
bed-rock-1.5, 440000.
bed-rock-1.6, 440000.
bed-rock-1.7, 440000.
bed-rock-1.8, 440000.
bed-rock-1.9, 440000.
bed-rock-1.10, 440000.
bed-rock-1.11, 440000.
bed-rock-1.12, 440000.
bed-rock-1.13, 440000.
bed-rock-1.14, 440000.
bed-rock-1.15, 440000.
bed-rock-1.16, 440000.
bed-rock-1.17, 440000.
bed-rock-1.18, 440000.
bed-rock-1.19, 440000.
bed-rock-1.20, 440000.
** ... 504 like lines cut
up-soil-1.1, 160000.
up-soil-1.2, 380000.
up-soil-1.3, 380000.
up-soil-1.4, 160000.
up-soil-1.5, 380000.
up-soil-1.6, 160000.
up-soil-1.7, 160000.
up-soil-1.8, 380000.
up-soil-1.9, 240000.
up-soil-1.10, 380000.
up-soil-1.11, 380000.
up-soil-1.12, 240000.
up-soil-1.13, 380000.
up-soil-1.14, 160000.
up-soil-1.15, 240000.
up-soil-1.16, 380000.
up-soil-1.17, 50000.
up-soil-1.18, 50000.
up-soil-1.19, 50000.
up-soil-1.20, 130000.
** ... 2881 like lines cut
** 
** INTERACTIONS
** 
** Interaction: Int-1
*Contact Pair, interaction=IntProp-1, type=SURFACE TO SURFACE
_PickedSurf204, _PickedSurf203
** ----------------------------------------------------------------
** 
** STEP: gravity
** 
*Step, name=gravity, nlgeom=YES, unsymm=YES
*Geostatic
** 
** BOUNDARY CONDITIONS
** 
** Name: BC-6 Type: Pore pressure Using Analytical Field: AnalyticalField-1
*Boundary
bed-rock-1.1, 8, 8, 440000.
bed-rock-1.132, 8, 8, 420000.
bed-rock-1.263, 8, 8, 400000.
bed-rock-1.394, 8, 8, 380000.
up-soil-1.7, 8, 8, 160000.
up-soil-1.8, 8, 8, 380000.
up-soil-1.47, 8, 8, 0.
up-soil-1.48, 8, 8, 50000.
up-soil-1.53, 8, 8, 130000.
up-soil-1.128, 8, 8, 180000.
up-soil-1.129, 8, 8, 200000.
up-soil-1.130, 8, 8, 220000.
up-soil-1.131, 8, 8, 240000.
up-soil-1.132, 8, 8, 260000.
up-soil-1.133, 8, 8, 280000.
up-soil-1.134, 8, 8, 300000.
up-soil-1.135, 8, 8, 320000.
up-soil-1.136, 8, 8, 340000.
up-soil-1.137, 8, 8, 360000.
up-soil-1.528, 8, 8, 16666.7
up-soil-1.529, 8, 8, 33333.3
up-soil-1.654, 8, 8, 145000.
up-soil-1.655, 8, 8, 66000.
up-soil-1.656, 8, 8, 82000.
up-soil-1.657, 8, 8, 98000.
up-soil-1.658, 8, 8, 114000.
** Name: BC-7 Type: Pore pressure Using Analytical Field: AnalyticalField-1
*Boundary
bed-rock-1.131, 8, 8, 440000.
bed-rock-1.262, 8, 8, 420000.
bed-rock-1.393, 8, 8, 400000.
bed-rock-1.524, 8, 8, 380000.
up-soil-1.3, 8, 8, 380000.
up-soil-1.4, 8, 8, 160000.
up-soil-1.17, 8, 8, 50000.
up-soil-1.21, 8, 8, 130000.
up-soil-1.56, 8, 8, 0.
up-soil-1.82, 8, 8, 360000.
up-soil-1.83, 8, 8, 340000.
up-soil-1.84, 8, 8, 320000.
up-soil-1.85, 8, 8, 300000.
up-soil-1.86, 8, 8, 280000.
up-soil-1.87, 8, 8, 260000.
up-soil-1.88, 8, 8, 240000.
up-soil-1.89, 8, 8, 220000.
up-soil-1.90, 8, 8, 200000.
up-soil-1.91, 8, 8, 180000.
up-soil-1.290, 8, 8, 114000.
up-soil-1.291, 8, 8, 98000.
up-soil-1.292, 8, 8, 82000.
up-soil-1.293, 8, 8, 66000.
up-soil-1.550, 8, 8, 145000.
up-soil-1.845, 8, 8, 33333.3
up-soil-1.846, 8, 8, 16666.7
** Name: BC-8 Type: Pore pressure
*Boundary
_PickedSet260_PP_, 8, 8
** Name: BC-12 Type: Pore pressure
*Boundary
_PickedSet263_PP_, 8, 8, 440000.
** 
** LOADS
** 
** Name: gravity   Type: Gravity
*Dload
_PickedSet215, GRAV, 10., 0., -1.
** 
** OUTPUT REQUESTS
** 
*Restart, write, frequency=0
** 
** FIELD OUTPUT: F-Output-1
** 
*Output, field
*Node Output
CF, PHILSM, POR, PSILSM, RF, U
*Element Output, directions=YES
LE, S, SAT, VOIDR
*Contact Output
CDISP, CSTRESS
** 
** HISTORY OUTPUT: H-Output-1
** 
*Output, history, variable=PRESELECT
*End Step
** ----------------------------------------------------------------
** 
** STEP: Step-2
** 
*Step, name=Step-2, nlgeom=YES, unsymm=YES
*Soils, consolidation, end=PERIOD, utol=1e+09
1., 1., 1e-05, 1., 
** 
** INTERACTIONS
** 
** Interaction: Int-2
*Model Change, remove
_PickedSet175, 
** 
** CONTROLS
** 
*Controls, reset
*Controls, analysis=discontinuous
*Controls, parameters=time incrementation
, , , , , , , 20, , , 
** 
** OUTPUT REQUESTS
** 
*Restart, write, frequency=0
** 
** FIELD OUTPUT: F-Output-1
** 
*Output, field
*Node Output
CF, PHILSM, POR, PSILSM, RF, U
*Element Output, directions=YES
LE, S, SAT, VOIDR
*Contact Output
CDISP, CSTRESS
** 
** HISTORY OUTPUT: H-Output-1
** 
*Output, history, variable=PRESELECT
*End Step
** ----------------------------------------------------------------
** 
** STEP: Step-3
** 
*Step, name=Step-3, nlgeom=YES, unsymm=YES
*Soils, consolidation, end=PERIOD, utol=1e+09
1., 1., 1e-05, 1., 
** 
** INTERACTIONS
** 
** Interaction: Int-3
*Model Change, remove
_PickedSet176, 
** 
** OUTPUT REQUESTS
** 
*Restart, write, frequency=0
** 
** FIELD OUTPUT: F-Output-1
** 
*Output, field
*Node Output
CF, PHILSM, POR, PSILSM, RF, U
*Element Output, directions=YES
LE, S, SAT, VOIDR
*Contact Output
CDISP, CSTRESS
** 
** HISTORY OUTPUT: H-Output-1
** 
*Output, history, variable=PRESELECT
*End Step
** ----------------------------------------------------------------
** 
** STEP: Step-4
** 
*Step, name=Step-4, nlgeom=YES, unsymm=YES
*Soils, consolidation, end=PERIOD, utol=1e+06
1., 1., 1e-12, 1., 
** 
** INTERACTIONS
** 
** Interaction: Int-4
*Model Change, remove
_PickedSet177, 
** 
** OUTPUT REQUESTS
** 
*Restart, write, frequency=0
** 
** FIELD OUTPUT: F-Output-1
** 
*Output, field
*Node Output
CF, PHILSM, POR, PSILSM, RF, U
*Element Output, directions=YES
LE, S, SAT, VOIDR
*Contact Output
CDISP, CSTRESS
** 
** HISTORY OUTPUT: H-Output-1
** 
*Output, history, variable=PRESELECT
*End Step
** ----------------------------------------------------------------
** 
** STEP: Step-5
** 
*Step, name=Step-5, nlgeom=YES, unsymm=YES
*Soils, consolidation, end=PERIOD, utol=1e+07
1., 1., 1e-05, 1., 
** 
** INTERACTIONS
** 
** Interaction: Int-5
*Model Change, remove
_PickedSet178, 
** 
** OUTPUT REQUESTS
** 
*Restart, write, frequency=0
** 
** FIELD OUTPUT: F-Output-1
** 
*Output, field
*Node Output
CF, PHILSM, POR, PSILSM, RF, U
*Element Output, directions=YES
LE, S, SAT, VOIDR
*Contact Output
CDISP, CSTRESS
** 
** HISTORY OUTPUT: H-Output-1
** 
*Output, history, variable=PRESELECT
*End Step
** ----------------------------------------------------------------
** 
** STEP: Step-6
** 
*Step, name=Step-6, nlgeom=YES, unsymm=YES
*Soils, consolidation, end=PERIOD, utol=1e+07
1., 1., 1e-05, 1., 
** 
** INTERACTIONS
** 
** Interaction: Int-6
*Model Change, remove
_PickedSet198, 
** 
** OUTPUT REQUESTS
** 
*Restart, write, frequency=0
** 
** FIELD OUTPUT: F-Output-1
** 
*Output, field
*Node Output
CF, PHILSM, POR, PSILSM, RF, U
*Element Output, directions=YES
LE, S, SAT, VOIDR
*Contact Output
CDISP, CSTRESS
** 
** HISTORY OUTPUT: H-Output-1
** 
*Output, history, variable=PRESELECT
*End Step
** ----------------------------------------------------------------
** 
** STEP: Step-7
** 
*Step, name=Step-7, nlgeom=YES, unsymm=YES
*Soils, consolidation, end=PERIOD, utol=1e+07
1., 1., 1e-05, 1., 
** 
** INTERACTIONS
** 
** Interaction: Int-7
*Model Change, remove
_PickedSet199, 
** 
** OUTPUT REQUESTS
** 
*Restart, write, frequency=0
** 
** FIELD OUTPUT: F-Output-1
** 
*Output, field
*Node Output
CF, PHILSM, POR, PSILSM, RF, U
*Element Output, directions=YES
LE, S, SAT, VOIDR
*Contact Output
CDISP, CSTRESS
** 
** HISTORY OUTPUT: H-Output-1
** 
*Output, history, variable=PRESELECT
*End Step
** ----------------------------------------------------------------
** 
** STEP: Step-8
** 
*Step, name=Step-8, nlgeom=YES, unsymm=YES
*Soils, consolidation, end=PERIOD, utol=1e+08
1., 1., 1e-05, 1., 
** 
** INTERACTIONS
** 
** Interaction: Int-8
*Model Change, add=WITH STRAIN
_PickedSet259, 
** 
** OUTPUT REQUESTS
** 
*Restart, write, frequency=0
** 
** FIELD OUTPUT: F-Output-1
** 
*Output, field
*Node Output
CF, PHILSM, POR, PSILSM, RF, U
*Element Output, directions=YES
LE, S, SAT, VOIDR
*Contact Output
CDISP, CSTRESS
** 
** HISTORY OUTPUT: H-Output-1
** 
*Output, history, variable=PRESELECT
*End Step
** ----------------------------------------------------------------
** 
** STEP: Step-10
** 
*Step, name=Step-10, nlgeom=YES, amplitude=RAMP, inc=10000, unsymm=YES
*Soils, consolidation, end=PERIOD, utol=1e+09
1., 10., 1e-05, 1.,
*cflow,amplitude=volumerate,phantom=edge
up-soil-1.505,up-soil-1.43,5e-4
up-soil-1.892,up-soil-1.893,5e-4
up-soil-1.857,up-soil-1.858,5e-4 
** 
** INTERACTIONS
** 
** Interaction: Int-10
*Model Change, remove
_PickedSet183, 
** 
** CONTROLS
** 
*Controls, reset
*Controls, analysis=discontinuous
*Controls, parameters=time incrementation
, , , , , , , 20, , , 
** 
** OUTPUT REQUESTS
** 
*Restart, write, frequency=0
** 
** FIELD OUTPUT: F-Output-1
** 
*Output, field
*Node Output
CF, PHILSM, POR, PSILSM, RF, U
*Element Output, directions=YES
LE, S, SAT, VOIDR
*contact output,surface=efgh
CSDMG,CRKDISP,PORPRES,PORPRESURF,GFVR,LEAKVR,ALEAKVR
*element output,elset=eall
PFOPENXFEM
LEAKVRTXFEM
LEAKVRBXFEM
ALEAKVRTXFEM
ALEAKVRBXFEM
PORPRES
GFVRXFEM
PFOPENXFEMCOMP
PORPRESCOMP
CRDCUTXFEM
*Contact Output
CDISP, CSTRESS
** 
** HISTORY OUTPUT: H-Output-1
** 
*Output, history, variable=PRESELECT
*End Step
** ----------------------------------------------------------------
** 
** STEP: extended_time
** 
**Step, name=extended_time, nlgeom=YES, unsymm=YES
**Soils, consolidation, end=PERIOD, utol=1e+08
*Step, name=extended_time, nlgeom=YES, amplitude=RAMP, inc=10000, unsymm=YES
*Soils, consolidation, end=PERIOD, utol=1e+08, stabilize=0.0002, allsdtol=0.05, continue=NO
100., 100., 0.00000000001, 100., 
*cflow,amplitude=volumerate,phantom=edge
up-soil-1.505,up-soil-1.43,2e-3
up-soil-1.892,up-soil-1.893,2e-3
up-soil-1.857,up-soil-1.858,2e-3
** 
** CONTROLS
** 
*Controls, reset
*Controls, analysis=discontinuous
*Controls, parameters=time incrementation
, , , , , , , 20, , , 
** 
** OUTPUT REQUESTS
** 
*Restart, write, frequency=0
** 
** FIELD OUTPUT: F-Output-1
** 
*Output, field, frequency=10
*Node Output
CF, PHILSM, POR, PSILSM, RF, U
*Element Output, directions=YES
LE, S, SAT, VOIDR
*contact output,surface=efgh
CSDMG,CRKDISP,PORPRES,PORPRESURF,GFVR,LEAKVR,ALEAKVR
*element output,elset=eall
PFOPENXFEM
LEAKVRTXFEM
LEAKVRBXFEM
ALEAKVRTXFEM
ALEAKVRBXFEM
PORPRES
GFVRXFEM
PFOPENXFEMCOMP
PORPRESCOMP
CRDCUTXFEM
*Contact Output
CDISP, CSTRESS
** 
** HISTORY OUTPUT: H-Output-1
** 
*Output, history, variable=PRESELECT
*End Step
