*Heading
** Job name: Job-centrifuge Model name: Model-1
** Generated by: Abaqus/CAE 2016
*Preprint, echo=NO, model=NO, history=NO, contact=NO
**
** PARTS
**
*Part, name=middle-crack
*End Part
**  
*Part, name=rock
*End Part
**  
*Part, name=soil
*End Part
**  
**
** ASSEMBLY
**
*Assembly, name=Assembly
**  
*Instance, name=middle-crack-1, part=middle-crack
*End Instance
**  
*Instance, name=rock-1, part=rock
*Node
      1,         51.5,           0.
      2,   49.5192261,           0.
      3,   47.5384636,           0.
      4,   45.5576935,           0.
      5,   43.5769234,           0.
      6,   41.5961571,           0.
      7,    39.615387,           0.
      8,   37.6346169,           0.
      9,   35.6538506,           0.
     10,   33.6730766,           0.
     11,   31.6923084,           0.
     12,   29.7115383,           0.
     13,   27.7307682,           0.
     14,        25.75,           0.
     15,   23.7692318,           0.
     16,   21.7884617,           0.
     17,   19.8076916,           0.
     18,   17.8269215,           0.
     19,   15.8461533,           0.
     20,   13.8653841,           0.
** ... 192 like lines cut
*Element, type=CPE4P
  1,   1,   2,  55,  54
  2,   2,   3,  56,  55
  3,   3,   4,  57,  56
  4,   4,   5,  58,  57
  5,   5,   6,  59,  58
  6,   6,   7,  60,  59
  7,   7,   8,  61,  60
  8,   8,   9,  62,  61
  9,   9,  10,  63,  62
 10,  10,  11,  64,  63
 11,  11,  12,  65,  64
 12,  12,  13,  66,  65
 13,  13,  14,  67,  66
 14,  14,  15,  68,  67
 15,  15,  16,  69,  68
 16,  16,  17,  70,  69
 17,  17,  18,  71,  70
 18,  18,  19,  72,  71
 19,  19,  20,  73,  72
 20,  20,  21,  74,  73
** ... 136 like lines cut
*Nset, nset=rock, generate
   1,  212,    1
*Elset, elset=rock, generate
   1,  156,    1
** Section: rock
*Solid Section, elset=rock, material=soil
,
*End Instance
**  
*Instance, name=soil-1, part=soil
*Node
      1,        -18.5,          20.
      2,        -18.5,          12.
      3,         18.5,          12.
      4,         18.5,          20.
      5,         51.5,           0.
      6,         51.5,          20.
      7,        -51.5,          20.
      8,        -51.5,           0.
      9,        -18.5,          19.
     10,        -18.5,          18.
     11,        -18.5,          17.
     12,        -18.5,          16.
     13,        -18.5,          15.
     14,        -18.5,          14.
     15,        -18.5,          13.
     16,        -17.5,          12.
     17,        -16.5,          12.
     18,        -15.5,          12.
     19,        -14.5,          12.
     20,        -13.5,          12.
** ... 2164 like lines cut
*Element, type=CPS4R
  1,   1,   9, 299,  94
  2,   9,  10, 300, 299
  3,  10,  11, 301, 300
  4,  11,  12, 302, 301
  5,  12,  13, 303, 302
  6,  13,  14, 304, 303
  7,  14,  15, 305, 304
  8,  15,   2,  16, 305
  9,  94, 299, 306,  93
 10, 299, 300, 307, 306
 11, 300, 301, 308, 307
 12, 301, 302, 309, 308
 13, 302, 303, 310, 309
 14, 303, 304, 311, 310
 15, 304, 305, 312, 311
 16, 305,  16,  17, 312
 17,  93, 306, 313,  92
 18, 306, 307, 314, 313
 19, 307, 308, 315, 314
 20, 308, 309, 316, 315
** ... 276 like lines cut
*Element, type=CPE4P
 297,  215,  216,  573,  561
 298,  216,  217,  574,  573
 299,  217,  218,  575,  574
 300,  218,  219,  576,  575
 301,  219,  220,  577,  576
 302,  220,  221,  578,  577
 303,  221,  222,  579,  578
 304,  222,  223,  580,  579
 305,  223,  224,  581,  580
 306,  224,  225,  582,  581
 307,  225,  226,  583,  582
 308,  226,  227,  584,  583
 309,  227,  228,  585,  584
 310,  228,  229,  586,  585
 311,  229,  230,  587,  586
 312,  230,  231,  588,  587
 313,  231,  232,  589,  588
 314,  232,  233,  590,  589
 315,  233,  234,  591,  590
 316,  234,  235,  592,  591
** ... 1744 like lines cut
*Nset, nset=soil, generate
    1,  2184,     1
*Elset, elset=soil, generate
    1,  2060,     1
** Section: soil
*Solid Section, elset=soil, material=soil
,
*End Instance
**  
*Nset, nset=excavation-face, instance=soil-1
   1,   2,   3,   4,   9,  10,  11,  12,  13,  14,  15,  16,  17,  18,  19,  20
  21,  22,  23,  24,  25,  26,  27,  28,  29,  30,  31,  32,  33,  34,  35,  36
  37,  38,  39,  40,  41,  42,  43,  44,  45,  46,  47,  48,  49,  50,  51,  52
  53,  54,  55,  56,  57,  58,  59,  60,  61,  62,  63,  64,  65,  66,  67,  68
  69,  70,  71,  72,  73,  74,  75,  76,  77,  78,  79,  80,  81,  82,  83,  84
  85,  86,  87,  88,  89,  90,  91,  92,  93,  94, 299, 300, 301, 302, 303, 304
 305, 306, 307, 308, 309, 310, 311, 312, 313, 314, 315, 316, 317, 318, 319, 320
 321, 322, 323, 324, 325, 326, 327, 328, 329, 330, 331, 332, 333, 334, 335, 336
 337, 338, 339, 340, 341, 342, 343, 344, 345, 346, 347, 348, 349, 350, 351, 352
 353, 354, 355, 356, 357, 358, 359, 360, 361, 362, 363, 364, 365, 366, 367, 368
 369, 370, 371, 372, 373, 374, 375, 376, 377, 378, 379, 380, 381, 382, 383, 384
 385, 386, 387, 388, 389, 390, 391, 392, 393, 394, 395, 396, 397, 398, 399, 400
 401, 402, 403, 404, 405, 406, 407, 408, 409, 410, 411, 412, 413, 414, 415, 416
 417, 418, 419, 420, 421, 422, 423, 424, 425, 426, 427, 428, 429, 430, 431, 432
 433, 434, 435, 436, 437, 438, 439, 440, 441, 442, 443, 444, 445, 446, 447, 448
 449, 450, 451, 452, 453, 454, 455, 456, 457, 458, 459, 460, 461, 462, 463, 464
 465, 466, 467, 468, 469, 470, 471, 472, 473, 474, 475, 476, 477, 478, 479, 480
 481, 482, 483, 484, 485, 486, 487, 488, 489, 490, 491, 492, 493, 494, 495, 496
 497, 498, 499, 500, 501, 502, 503, 504, 505, 506, 507, 508, 509, 510, 511, 512
 513, 514, 515, 516, 517, 518, 519, 520, 521, 522, 523, 524, 525, 526, 527, 528
 529, 530, 531, 532, 533, 534, 535, 536, 537, 538, 539, 540, 541, 542, 543, 544
 545, 546, 547, 548, 549, 550
*Elset, elset=excavation-face, instance=soil-1, generate
   1,  296,    1
*Nset, nset=gravity, instance=rock-1, generate
   1,  212,    1
*Nset, nset=gravity, instance=soil-1
    1,    2,    3,    4,    5,    6,    7,    8,    9,   10,   11,   12,   13,   14,   15,   16
   17,   18,   19,   20,   21,   22,   23,   24,   25,   26,   27,   28,   29,   30,   31,   32
   33,   34,   35,   36,   37,   38,   39,   40,   41,   42,   43,   44,   45,   46,   47,   48
   49,   50,   51,   52,   53,   54,   55,   56,   57,   58,   95,   96,   97,   98,   99,  100
  101,  102,  103,  104,  105,  106,  107,  108,  109,  110,  111,  112,  113,  114,  115,  116
  117,  118,  119,  120,  121,  122,  123,  124,  125,  126,  127,  128,  129,  130,  131,  132
  133,  134,  135,  136,  137,  138,  139,  140,  141,  142,  143,  144,  145,  146,  147,  148
  149,  150,  151,  152,  153,  154,  155,  156,  157,  158,  159,  160,  161,  162,  163,  164
  165,  166,  167,  168,  169,  170,  171,  172,  173,  174,  175,  176,  177,  178,  179,  180
  181,  182,  183,  184,  185,  186,  187,  188,  189,  190,  191,  192,  193,  194,  195,  196
  197,  198,  199,  200,  201,  202,  203,  204,  205,  206,  207,  208,  209,  210,  211,  212
  213,  214,  215,  216,  217,  218,  219,  220,  221,  222,  223,  224,  225,  226,  227,  228
  229,  230,  231,  232,  233,  234,  235,  236,  237,  238,  239,  240,  241,  242,  243,  244
  245,  246,  247,  248,  249,  250,  251,  252,  253,  254,  255,  256,  257,  258,  259,  260
  261,  262,  263,  264,  265,  266,  267,  268,  269,  270,  271,  272,  273,  274,  275,  276
  277,  278,  279,  280,  281,  282,  283,  284,  285,  286,  287,  288,  289,  290,  291,  292
  293,  294,  295,  296,  297,  298,  551,  552,  553,  554,  555,  556,  557,  558,  559,  560
  561,  562,  563,  564,  565,  566,  567,  568,  569,  570,  571,  572,  573,  574,  575,  576
  577,  578,  579,  580,  581,  582,  583,  584,  585,  586,  587,  588,  589,  590,  591,  592
  593,  594,  595,  596,  597,  598,  599,  600,  601,  602,  603,  604,  605,  606,  607,  608
** ... 99 like lines cut
*Elset, elset=gravity, instance=rock-1, generate
   1,  156,    1
*Elset, elset=gravity, instance=soil-1, generate
  297,  2060,     1
*Nset, nset=left-bc-edge, instance=rock-1, generate
  53,  212,   53
*Nset, nset=left-bc-edge, instance=soil-1
   7,   8, 127, 128, 129, 130, 131, 132, 133, 134, 135, 136, 137, 138, 139, 140
 141, 142, 143, 144, 145
*Elset, elset=left-bc-edge, instance=rock-1, generate
  52,  156,   52
*Elset, elset=left-bc-edge, instance=soil-1, generate
 2041,  2060,     1
*Nset, nset=left-prop-edge, instance=soil-1
   1,   7,  95,  96,  97,  98,  99, 100, 101, 102, 103, 104, 105, 106, 107, 108
 109, 110, 111, 112, 113, 114, 115, 116, 117, 118, 119, 120, 121, 122, 123, 124
 125, 126
*Elset, elset=left-prop-edge, instance=soil-1, generate
 1420,  2060,    20
*Nset, nset=right-bc-edge, instance=rock-1, generate
   1,  160,   53
*Nset, nset=right-bc-edge, instance=soil-1
   5,   6, 248, 249, 250, 251, 252, 253, 254, 255, 256, 257, 258, 259, 260, 261
 262, 263, 264, 265, 266
*Elset, elset=right-bc-edge, instance=rock-1, generate
   1,  105,   52
*Elset, elset=right-bc-edge, instance=soil-1, generate
 329,  956,   33
*Nset, nset=right-prop-edge, instance=soil-1
   4,   6, 267, 268, 269, 270, 271, 272, 273, 274, 275, 276, 277, 278, 279, 280
 281, 282, 283, 284, 285, 286, 287, 288, 289, 290, 291, 292, 293, 294, 295, 296
 297, 298
*Elset, elset=right-prop-edge, instance=soil-1, generate
 924,  956,    1
*Nset, nset=rock-bottom-bc-edge, instance=rock-1, generate
 160,  212,    1
*Elset, elset=rock-bottom-bc-edge, instance=rock-1, generate
 105,  156,    1
*Nset, nset=rock-up-bc-edge, instance=rock-1, generate
  1,  53,   1
*Elset, elset=rock-up-bc-edge, instance=rock-1, generate
  1,  52,   1
*Nset, nset=soil-bottom-pore-bc-edge, instance=soil-1
   5,   8, 146, 147, 148, 149, 150, 151, 152, 153, 154, 155, 156, 157, 158, 159
 160, 161, 162, 163, 164, 165, 166, 167, 168, 169, 170, 171, 172, 173, 174, 175
 176, 177, 178, 179, 180, 181, 182, 183, 184, 185, 186, 187, 188, 189, 190, 191
 192, 193, 194, 195, 196, 197, 198, 199, 200, 201, 202, 203, 204, 205, 206, 207
 208, 209, 210, 211, 212, 213, 214, 215, 216, 217, 218, 219, 220, 221, 222, 223
 224, 225, 226, 227, 228, 229, 230, 231, 232, 233, 234, 235, 236, 237, 238, 239
 240, 241, 242, 243, 244, 245, 246, 247
*Elset, elset=soil-bottom-pore-bc-edge, instance=soil-1
  297,  298,  299,  300,  301,  302,  303,  304,  305,  306,  307,  308,  309,  310,  311,  312
  313,  314,  315,  316,  317,  318,  319,  320,  321,  322,  323,  324,  325,  326,  327,  328
  329,  957,  969,  981,  993, 1005, 1017, 1029, 1041, 1053, 1065, 1077, 1089, 1101, 1113, 1125
 1137, 1149, 1161, 1173, 1185, 1197, 1209, 1221, 1233, 1245, 1257, 1269, 1281, 1293, 1305, 1317
 1329, 1341, 1353, 1365, 1377, 1389, 1401, 1421, 1441, 1461, 1481, 1501, 1521, 1541, 1561, 1581
 1601, 1621, 1641, 1661, 1681, 1701, 1721, 1741, 1761, 1781, 1801, 1821, 1841, 1861, 1881, 1901
 1921, 1941, 1961, 1981, 2001, 2021, 2041
*Nset, nset=soil-left-pore-bc-edge, instance=soil-1
   7,   8, 127, 128, 129, 130, 131, 132, 133, 134, 135, 136, 137, 138, 139, 140
 141, 142, 143, 144, 145
*Elset, elset=soil-left-pore-bc-edge, instance=soil-1, generate
 2041,  2060,     1
*Nset, nset=soil-right-pore-bc-edge, instance=soil-1
   5,   6, 248, 249, 250, 251, 252, 253, 254, 255, 256, 257, 258, 259, 260, 261
 262, 263, 264, 265, 266
*Elset, elset=soil-right-pore-bc-edge, instance=soil-1, generate
 329,  956,   33
*Nset, nset=soil-up-after-pore-bc-edge, instance=soil-1
   1,   2,   3,   4,   6,   7,   9,  10,  11,  12,  13,  14,  15,  16,  17,  18
  19,  20,  21,  22,  23,  24,  25,  26,  27,  28,  29,  30,  31,  32,  33,  34
  35,  36,  37,  38,  39,  40,  41,  42,  43,  44,  45,  46,  47,  48,  49,  50
  51,  52,  53,  54,  55,  56,  57,  58,  95,  96,  97,  98,  99, 100, 101, 102
 103, 104, 105, 106, 107, 108, 109, 110, 111, 112, 113, 114, 115, 116, 117, 118
 119, 120, 121, 122, 123, 124, 125, 126, 267, 268, 269, 270, 271, 272, 273, 274
 275, 276, 277, 278, 279, 280, 281, 282, 283, 284, 285, 286, 287, 288, 289, 290
 291, 292, 293, 294, 295, 296, 297, 298
*Elset, elset=soil-up-after-pore-bc-edge, instance=soil-1
    1,    2,    3,    4,    5,    6,    7,    8,   16,   24,   32,   40,   48,   56,   64,   72
   80,   88,   96,  104,  112,  120,  128,  136,  144,  152,  160,  168,  176,  184,  192,  200
  208,  216,  224,  232,  240,  248,  256,  264,  272,  280,  288,  289,  290,  291,  292,  293
  294,  295,  296,  693,  726,  759,  792,  825,  858,  891,  924,  925,  926,  927,  928,  929
  930,  931,  932,  933,  934,  935,  936,  937,  938,  939,  940,  941,  942,  943,  944,  945
  946,  947,  948,  949,  950,  951,  952,  953,  954,  955,  956,  968,  980,  992, 1004, 1016
 1028, 1040, 1052, 1064, 1076, 1088, 1100, 1112, 1124, 1136, 1148, 1160, 1172, 1184, 1196, 1208
 1220, 1232, 1244, 1256, 1268, 1280, 1292, 1304, 1316, 1328, 1340, 1352, 1364, 1376, 1388, 1400
 1413, 1414, 1415, 1416, 1417, 1418, 1419, 1420, 1440, 1460, 1480, 1500, 1520, 1540, 1560, 1580
 1600, 1620, 1640, 1660, 1680, 1700, 1720, 1740, 1760, 1780, 1800, 1820, 1840, 1860, 1880, 1900
 1920, 1940, 1960, 1980, 2000, 2020, 2040, 2060
*Nset, nset=soil-up-before-pore-bc-edge, instance=soil-1
   1,   4,   6,   7,  59,  60,  61,  62,  63,  64,  65,  66,  67,  68,  69,  70
  71,  72,  73,  74,  75,  76,  77,  78,  79,  80,  81,  82,  83,  84,  85,  86
  87,  88,  89,  90,  91,  92,  93,  94,  95,  96,  97,  98,  99, 100, 101, 102
 103, 104, 105, 106, 107, 108, 109, 110, 111, 112, 113, 114, 115, 116, 117, 118
 119, 120, 121, 122, 123, 124, 125, 126, 267, 268, 269, 270, 271, 272, 273, 274
 275, 276, 277, 278, 279, 280, 281, 282, 283, 284, 285, 286, 287, 288, 289, 290
 291, 292, 293, 294, 295, 296, 297, 298
*Elset, elset=soil-up-before-pore-bc-edge, instance=soil-1
    1,    9,   17,   25,   33,   41,   49,   57,   65,   73,   81,   89,   97,  105,  113,  121
  129,  137,  145,  153,  161,  169,  177,  185,  193,  201,  209,  217,  225,  233,  241,  249
  257,  265,  273,  281,  289,  924,  925,  926,  927,  928,  929,  930,  931,  932,  933,  934
  935,  936,  937,  938,  939,  940,  941,  942,  943,  944,  945,  946,  947,  948,  949,  950
  951,  952,  953,  954,  955,  956, 1420, 1440, 1460, 1480, 1500, 1520, 1540, 1560, 1580, 1600
 1620, 1640, 1660, 1680, 1700, 1720, 1740, 1760, 1780, 1800, 1820, 1840, 1860, 1880, 1900, 1920
 1940, 1960, 1980, 2000, 2020, 2040, 2060
*Elset, elset=xfem-ele-set, instance=soil-1, generate
    1,  2060,     1
*Elset, elset=_penetration-surface_S3, internal, instance=soil-1
 1641,
*Surface, type=ELEMENT, name=penetration-surface, type=XFEM
Crack-1
*Elset, elset=_rock-master_S1, internal, instance=rock-1, generate
  1,  52,   1
*Surface, type=ELEMENT, name=rock-master
_rock-master_S1, S1
*Elset, elset=_rock-up-bc-edge_S1, internal, instance=rock-1, generate
  1,  52,   1
*Surface, type=ELEMENT, name=rock-up-bc-edge
_rock-up-bc-edge_S1, S1
*Elset, elset=_soil-slave_S1, internal, instance=soil-1, generate
 297,  329,    1
*Elset, elset=_soil-slave_S4, internal, instance=soil-1
  957,  969,  981,  993, 1005, 1017, 1029, 1041, 1053, 1065, 1077, 1089, 1101, 1113, 1125, 1137
 1149, 1161, 1173, 1185, 1197, 1209, 1221, 1233, 1245, 1257, 1269, 1281, 1293, 1305, 1317, 1329
 1341, 1353, 1365, 1377, 1389, 1401, 1421, 1441, 1461, 1481, 1501, 1521, 1541, 1561, 1581, 1601
 1621, 1641, 1661, 1681, 1701, 1721, 1741, 1761, 1781, 1801, 1821, 1841, 1861, 1881, 1901, 1921
 1941, 1961, 1981, 2001, 2021, 2041
*Surface, type=ELEMENT, name=soil-slave
_soil-slave_S1, S1
_soil-slave_S4, S4
*Nset, nset=soil-bottom-pore-bc-edge_PP_, internal, instance=soil-1
   5,   8, 146, 147, 148, 149, 150, 151, 152, 153, 154, 155, 156, 157, 158, 159
 160, 161, 162, 163, 164, 165, 166, 167, 168, 169, 170, 171, 172, 173, 174, 175
 176, 177, 178, 179, 180, 181, 182, 183, 184, 185, 186, 187, 188, 189, 190, 191
 192, 193, 194, 195, 196, 197, 198, 199, 200, 201, 202, 203, 204, 205, 206, 207
 208, 209, 210, 211, 212, 213, 214, 215, 216, 217, 218, 219, 220, 221, 222, 223
 224, 225, 226, 227, 228, 229, 230, 231, 232, 233, 234, 235, 236, 237, 238, 239
 240, 241, 242, 243, 244, 245, 246, 247
*Nset, nset=soil-left-pore-bc-edge_PP_, internal, instance=soil-1
   7,   8, 127, 128, 129, 130, 131, 132, 133, 134, 135, 136, 137, 138, 139, 140
 141, 142, 143, 144, 145
*Nset, nset=soil-right-pore-bc-edge_PP_, internal, instance=soil-1
   5,   6, 248, 249, 250, 251, 252, 253, 254, 255, 256, 257, 258, 259, 260, 261
 262, 263, 264, 265, 266
*Nset, nset=soil-up-before-pore-bc-edge_PP_, internal, instance=soil-1
   1,   4,   6,   7,  59,  60,  61,  62,  63,  64,  65,  66,  67,  68,  69,  70
  71,  72,  73,  74,  75,  76,  77,  78,  79,  80,  81,  82,  83,  84,  85,  86
  87,  88,  89,  90,  91,  92,  93,  94,  95,  96,  97,  98,  99, 100, 101, 102
 103, 104, 105, 106, 107, 108, 109, 110, 111, 112, 113, 114, 115, 116, 117, 118
 119, 120, 121, 122, 123, 124, 125, 126, 267, 268, 269, 270, 271, 272, 273, 274
 275, 276, 277, 278, 279, 280, 281, 282, 283, 284, 285, 286, 287, 288, 289, 290
 291, 292, 293, 294, 295, 296, 297, 298
*Nset, nset=soil-up-after-pore-bc-edge_PP_, internal, instance=soil-1
   1,   2,   3,   4,   6,   7,   9,  10,  11,  12,  13,  14,  15,  16,  17,  18
  19,  20,  21,  22,  23,  24,  25,  26,  27,  28,  29,  30,  31,  32,  33,  34
  35,  36,  37,  38,  39,  40,  41,  42,  43,  44,  45,  46,  47,  48,  49,  50
  51,  52,  53,  54,  55,  56,  57,  58,  95,  96,  97,  98,  99, 100, 101, 102
 103, 104, 105, 106, 107, 108, 109, 110, 111, 112, 113, 114, 115, 116, 117, 118
 119, 120, 121, 122, 123, 124, 125, 126, 267, 268, 269, 270, 271, 272, 273, 274
 275, 276, 277, 278, 279, 280, 281, 282, 283, 284, 285, 286, 287, 288, 289, 290
 291, 292, 293, 294, 295, 296, 297, 298
*Enrichment, name=Crack-1, type=PROPAGATION CRACK, elset=soil-1.soil, interaction=IntProp-1
*End Assembly
*Amplitude, name=volumerate
             0.,              0.,             25.,           -200.,             50.,           -250.
*Amplitude, name=volumerate_1
             0.,              -250,             25.,           -275.,             50.,           -300.
*Amplitude, name=volumerate_2
             0.,              -300,             25.,           -325.,             50.,           -350.
** 
** MATERIALS
** 
*Material, name=soil
*Damage Initiation, criterion=MAXPS, position=CRACKTIP, tolerance=0.1
200000.,
*Damage Evolution, type=ENERGY, mixed mode behavior=POWER LAW, power=1.
10000.,10000.,10000.
*Damage Stabilization
0.0001
*Density
1616.,
*Elastic
 5e+07, 0.3
*Fluid Leakoff
 5.879e-16, 5.879e-16
*Gap Flow
 1e-06,
*Permeability, specific=10000.
 2.418e-05,0.
** 
** INTERACTION PROPERTIES
** 
*Surface Interaction, name=IntProp-1
1.,
*Surface Interaction, name=IntProp-2
1.,
*Friction
0.,
*Surface Behavior, pressure-overclosure=HARD
*Initial Conditions, type=ENRICHMENT
soil-1.298, 1,Crack-1, -0.5, -1.
soil-1.298, 2,Crack-1, 0.5, -1.
soil-1.298, 3,Crack-1, 0.5, 0.
soil-1.298, 4,Crack-1, -0.5, 0.
** 
** BOUNDARY CONDITIONS
*Boundary, phantom=node
soil-1.216, 2,2
soil-1.217, 2,2
** 
** Name: left-bc Type: Displacement/Rotation
*Boundary
left-bc-edge, 1, 1
left-bc-edge, 2, 2
** Name: right-bc Type: Displacement/Rotation
*Boundary
right-bc-edge, 1, 1
right-bc-edge, 2, 2
** Name: rock-bottom-bc Type: Displacement/Rotation
*Boundary
rock-bottom-bc-edge, 1, 1
rock-bottom-bc-edge, 2, 2
** Name: rock-up-bc Type: Displacement/Rotation
*Boundary
rock-up-bc-edge, 1, 1
rock-up-bc-edge, 2, 2
** 
** PREDEFINED FIELDS
** 
** Name: geo-rock   Type: Geostatic stress
*Initial Conditions, type=STRESS, GEOSTATIC
rock-1.rock, -323200., 0., -404000., -5., 0.7, 0.7
** Name: geo-soil   Type: Geostatic stress
*Initial Conditions, type=STRESS, GEOSTATIC
soil-1.soil, 0., 20., -323200., 0., 0.7, 0.7
** Name: pore   Type: Pore pressure Using Field: AnalyticalField-1
*Initial Conditions, TYPE=PORE PRESSURE
soil-1.1, 0.
soil-1.2, 80000.
soil-1.3, 80000.
soil-1.4, 0.
soil-1.5, 200000.
soil-1.6, 0.
soil-1.7, 0.
soil-1.8, 200000.
soil-1.9, 10000.
soil-1.10, 20000.
soil-1.11, 30000.
soil-1.12, 40000.
soil-1.13, 50000.
soil-1.14, 60000.
soil-1.15, 70000.
soil-1.16, 80000.
soil-1.17, 80000.
soil-1.18, 80000.
soil-1.19, 80000.
soil-1.20, 80000.
** ... 2164 like lines cut
** Name: void-rock   Type: Void ratio
*Initial Conditions, TYPE=RATIO
rock-1.rock, 0.001
** Name: void-soil   Type: Void ratio
*Initial Conditions, TYPE=RATIO
soil-1.soil, 0.64
** 
** INTERACTIONS
** 
** Interaction: Int-1
*Contact Pair, interaction=IntProp-2, type=SURFACE TO SURFACE
soil-slave, rock-master
** ----------------------------------------------------------------
** 
** STEP: gravity
** 
*Step, name=gravity, nlgeom=YES, unsymm=YES
*Geostatic
** 
** BOUNDARY CONDITIONS
** 
** Name: bottom-pore-bc Type: Pore pressure
*Boundary
soil-bottom-pore-bc-edge_PP_, 8, 8, 200000.
** Name: left-pore-bc Type: Pore pressure Using Analytical Field: AnalyticalField-1
*Boundary
soil-1.7, 8, 8, 0.
soil-1.8, 8, 8, 200000.
soil-1.127, 8, 8, 10000.
soil-1.128, 8, 8, 20000.
soil-1.129, 8, 8, 30000.
soil-1.130, 8, 8, 40000.
soil-1.131, 8, 8, 50000.
soil-1.132, 8, 8, 60000.
soil-1.133, 8, 8, 70000.
soil-1.134, 8, 8, 80000.
soil-1.135, 8, 8, 90000.
soil-1.136, 8, 8, 100000.
soil-1.137, 8, 8, 110000.
soil-1.138, 8, 8, 120000.
soil-1.139, 8, 8, 130000.
soil-1.140, 8, 8, 140000.
soil-1.141, 8, 8, 150000.
soil-1.142, 8, 8, 160000.
soil-1.143, 8, 8, 170000.
soil-1.144, 8, 8, 180000.
soil-1.145, 8, 8, 190000.
** Name: right-pore-bc Type: Pore pressure Using Analytical Field: AnalyticalField-1
*Boundary
soil-1.5, 8, 8, 200000.
soil-1.6, 8, 8, 0.
soil-1.248, 8, 8, 190000.
soil-1.249, 8, 8, 180000.
soil-1.250, 8, 8, 170000.
soil-1.251, 8, 8, 160000.
soil-1.252, 8, 8, 150000.
soil-1.253, 8, 8, 140000.
soil-1.254, 8, 8, 130000.
soil-1.255, 8, 8, 120000.
soil-1.256, 8, 8, 110000.
soil-1.257, 8, 8, 100000.
soil-1.258, 8, 8, 90000.
soil-1.259, 8, 8, 80000.
soil-1.260, 8, 8, 70000.
soil-1.261, 8, 8, 60000.
soil-1.262, 8, 8, 50000.
soil-1.263, 8, 8, 40000.
soil-1.264, 8, 8, 30000.
soil-1.265, 8, 8, 20000.
soil-1.266, 8, 8, 10000.
** Name: up-pore-bc Type: Pore pressure
*Boundary
soil-up-before-pore-bc-edge_PP_, 8, 8
** 
** LOADS
** 
** Name: gravity   Type: Gravity
*Dload
gravity, GRAV, 10., 0., -1.
** 
** OUTPUT REQUESTS
** 
*Restart, write, frequency=0
** 
** FIELD OUTPUT: F-Output-1
** 
*Output, field
*Node Output
CF, PHILSM, POR, PSILSM, RF, U
*Element Output, directions=YES
LE, S, SAT, VOIDR
*Contact Output
CDISP, CSTRESS
*element output,elset=xfem-ele-set
PFOPENXFEM
PORPRES
PFOPENXFEMCOMP
PORPRESCOMP
** 
** HISTORY OUTPUT: H-Output-1
** 
*Output, history, variable=PRESELECT
*End Step
** ----------------------------------------------------------------
** 
** STEP: execavation
** 
*Step, name=execavation, nlgeom=YES, unsymm=YES
*Soils, consolidation, end=PERIOD, utol=1e+09
1., 1., 1e-12, 1., 
** 
** BOUNDARY CONDITIONS
** 
** Name: bottom-pore-bc Type: Pore pressure
*Boundary, op=NEW
** Name: exe-bottom-pore-bc Type: Pore pressure
*Boundary, op=NEW
soil-bottom-pore-bc-edge_PP_, 8, 8, 200000.
** Name: exe-left-pore-bc Type: Pore pressure Using Analytical Field: AnalyticalField-1
*Boundary, op=NEW
soil-1.7, 8, 8, 0.
soil-1.8, 8, 8, 200000.
soil-1.127, 8, 8, 10000.
soil-1.128, 8, 8, 20000.
soil-1.129, 8, 8, 30000.
soil-1.130, 8, 8, 40000.
soil-1.131, 8, 8, 50000.
soil-1.132, 8, 8, 60000.
soil-1.133, 8, 8, 70000.
soil-1.134, 8, 8, 80000.
soil-1.135, 8, 8, 90000.
soil-1.136, 8, 8, 100000.
soil-1.137, 8, 8, 110000.
soil-1.138, 8, 8, 120000.
soil-1.139, 8, 8, 130000.
soil-1.140, 8, 8, 140000.
soil-1.141, 8, 8, 150000.
soil-1.142, 8, 8, 160000.
soil-1.143, 8, 8, 170000.
soil-1.144, 8, 8, 180000.
soil-1.145, 8, 8, 190000.
** Name: exe-right-pore-bc Type: Pore pressure Using Analytical Field: AnalyticalField-1
*Boundary, op=NEW
soil-1.5, 8, 8, 200000.
soil-1.6, 8, 8, 0.
soil-1.248, 8, 8, 190000.
soil-1.249, 8, 8, 180000.
soil-1.250, 8, 8, 170000.
soil-1.251, 8, 8, 160000.
soil-1.252, 8, 8, 150000.
soil-1.253, 8, 8, 140000.
soil-1.254, 8, 8, 130000.
soil-1.255, 8, 8, 120000.
soil-1.256, 8, 8, 110000.
soil-1.257, 8, 8, 100000.
soil-1.258, 8, 8, 90000.
soil-1.259, 8, 8, 80000.
soil-1.260, 8, 8, 70000.
soil-1.261, 8, 8, 60000.
soil-1.262, 8, 8, 50000.
soil-1.263, 8, 8, 40000.
soil-1.264, 8, 8, 30000.
soil-1.265, 8, 8, 20000.
soil-1.266, 8, 8, 10000.
** Name: exe-up-pore-bc Type: Pore pressure
*Boundary, op=NEW
soil-up-before-pore-bc-edge_PP_, 8, 8
** Name: left-bc Type: Displacement/Rotation
*Boundary, op=NEW
left-bc-edge, 1, 1
left-bc-edge, 2, 2
** Name: left-pore-bc Type: Pore pressure Using Analytical Field: AnalyticalField-1
*Boundary, op=NEW
** Name: left-prop Type: Displacement/Rotation
*Boundary, op=NEW
left-prop-edge, 1, 1
left-prop-edge, 2, 2
** Name: right-bc Type: Displacement/Rotation
*Boundary, op=NEW
right-bc-edge, 1, 1
right-bc-edge, 2, 2
** Name: right-pore-bc Type: Pore pressure Using Analytical Field: AnalyticalField-1
*Boundary, op=NEW
** Name: right-prop Type: Displacement/Rotation
*Boundary, op=NEW
right-prop-edge, 1, 1
right-prop-edge, 2, 2
** Name: rock-bottom-bc Type: Displacement/Rotation
*Boundary, op=NEW
rock-bottom-bc-edge, 1, 1
rock-bottom-bc-edge, 2, 2
** Name: rock-up-bc Type: Displacement/Rotation
*Boundary, op=NEW
rock-up-bc-edge, 1, 1
rock-up-bc-edge, 2, 2
** Name: up-pore-bc Type: Pore pressure
*Boundary, op=NEW
** 
** INTERACTIONS
** 
** Interaction: excavation
*Model Change, remove
excavation-face, 
** 
** OUTPUT REQUESTS
** 
*Restart, write, frequency=0
** 
** FIELD OUTPUT: F-Output-1
** 
*Output, field
*Node Output
CF, PHILSM, POR, PSILSM, RF, U
*Element Output, directions=YES
LE, S, SAT, VOIDR
*Contact Output
CDISP, CSTRESS
*element output,elset=xfem-ele-set
PFOPENXFEM
PORPRES
PFOPENXFEMCOMP
PORPRESCOMP
** 
** HISTORY OUTPUT: H-Output-1
** 
*Output, history, variable=PRESELECT
*End Step
** ----------------------------------------------------------------
** 
** STEP: pore-balance
** 
*Step, name=pore-balance, nlgeom=YES, unsymm=YES
*Soils, consolidation, end=PERIOD, utol=1e+09
0.05, 1., 1e-12, 1., 
** 
** BOUNDARY CONDITIONS
** 
** Name: after-exe-up-pore-bc Type: Pore pressure
*Boundary
soil-up-after-pore-bc-edge_PP_, 8, 8
** 
** OUTPUT REQUESTS
** 
*Restart, write, frequency=0
** 
** FIELD OUTPUT: F-Output-1
** 
*Output, field
*Node Output
CF, PHILSM, POR, PSILSM, RF, U
*Element Output, directions=YES
LE, S, SAT, VOIDR
*Contact Output
CDISP, CSTRESS
*element output,elset=xfem-ele-set
PFOPENXFEM
PORPRES
PFOPENXFEMCOMP
PORPRESCOMP
** 
** HISTORY OUTPUT: H-Output-1
** 
*Output, history, variable=PRESELECT
*End Step
** ----------------------------------------------------------------
** 
** STEP: injection
** 
*Step, name=injection, nlgeom=YES, unsymm=YES
*Soils, consolidation, end=PERIOD, utol=1e+09,stabilize=0.0002, allsdtol=0.05, continue=NO
0.05, 100., 1e-12, 5., 
*cflow,amplitude=volumerate,phantom=edge
soil-1.216, soil-1.217, 5e-05
** 
** BOUNDARY CONDITIONS
** 
** Name: prop_bc Type: Displacement/Rotation
*Boundary
soil-up-after-pore-bc-edge, 1, 1
soil-up-after-pore-bc-edge, 2, 2
** 
** CONTROLS
** 
*Controls, reset
*Controls, analysis=discontinuous
*Controls, parameters=time incrementation
, , , , , , , 20, , , 
** 
** OUTPUT REQUESTS
** 
*Restart, write, frequency=0
** 
** FIELD OUTPUT: F-Output-1
** 
*Output, field
*Node Output
CF, PHILSM, POR, PSILSM, RF, U
*Element Output, directions=YES
LE, S, SAT, VOIDR
*Contact Output
CDISP, CSTRESS
*element output,elset=xfem-ele-set
PFOPENXFEM
PORPRES
PFOPENXFEMCOMP
PORPRESCOMP
** 
** HISTORY OUTPUT: H-Output-1
** 
*Output, history, variable=PRESELECT
*End Step
** ----------------------------------------------------------------
** 
** STEP: injection_1
** 
*Step, name=injection_1, nlgeom=YES, unsymm=YES
*Soils, consolidation, end=PERIOD, utol=1e+09,stabilize=0.0002, allsdtol=0.05, continue=NO
0.05, 100., 1e-12, 5., 
*cflow,amplitude=volumerate_1,phantom=edge
soil-1.216, soil-1.217, 5e-05
** 
** BOUNDARY CONDITIONS
** 
** Name: prop_bc Type: Displacement/Rotation
*Boundary
soil-up-after-pore-bc-edge, 1, 1
soil-up-after-pore-bc-edge, 2, 2
** 
** CONTROLS
** 
*Controls, reset
*Controls, analysis=discontinuous
*Controls, parameters=time incrementation
, , , , , , , 20, , , 
** 
** OUTPUT REQUESTS
** 
*Restart, write, frequency=0
** 
** FIELD OUTPUT: F-Output-1
** 
*Output, field
*Node Output
CF, PHILSM, POR, PSILSM, RF, U
*Element Output, directions=YES
LE, S, SAT, VOIDR
*Contact Output
CDISP, CSTRESS
*element output,elset=xfem-ele-set
PFOPENXFEM
PORPRES
PFOPENXFEMCOMP
PORPRESCOMP
** 
** HISTORY OUTPUT: H-Output-1
** 
*Output, history, variable=PRESELECT
*End Step
** ----------------------------------------------------------------
** 
** STEP: injection_2
** 
*Step, name=injection_2, nlgeom=YES, unsymm=YES
*Soils, consolidation, end=PERIOD, utol=1e+09,stabilize=0.0002, allsdtol=0.05, continue=NO
0.05, 100., 1e-12, 5., 
*cflow,amplitude=volumerate_2,phantom=edge
soil-1.216, soil-1.217, 5e-05
** 
** BOUNDARY CONDITIONS
** 
** Name: prop_bc Type: Displacement/Rotation
*Boundary
soil-up-after-pore-bc-edge, 1, 1
soil-up-after-pore-bc-edge, 2, 2
** 
** CONTROLS
** 
*Controls, reset
*Controls, analysis=discontinuous
*Controls, parameters=time incrementation
, , , , , , , 20, , , 
** 
** OUTPUT REQUESTS
** 
*Restart, write, frequency=0
** 
** FIELD OUTPUT: F-Output-1
** 
*Output, field
*Node Output
CF, PHILSM, POR, PSILSM, RF, U
*Element Output, directions=YES
LE, S, SAT, VOIDR
*Contact Output
CDISP, CSTRESS
*element output,elset=xfem-ele-set
PFOPENXFEM
PORPRES
PFOPENXFEMCOMP
PORPRESCOMP
** 
** HISTORY OUTPUT: H-Output-1
** 
*Output, history, variable=PRESELECT
*End Step

