*Heading
** Job name: Job-centrifuge Model name: Model-1
** Generated by: Abaqus/CAE 2016
*Preprint, echo=NO, model=NO, history=NO, contact=NO
**
** PARTS
**
*Part, name=middle-crack
*End Part
**  
*Part, name=rock
*End Part
**  
*Part, name=soil
*End Part
**  
**
** ASSEMBLY
**
*Assembly, name=Assembly
**  
*Instance, name=middle-crack-1, part=middle-crack
*End Instance
**  
*Instance, name=rock-1, part=rock
*Node
      1,         51.5,           0.
      2,   49.5192261,           0.
      3,   47.5384636,           0.
      4,   45.5576935,           0.
      5,   43.5769234,           0.
      6,   41.5961571,           0.
      7,    39.615387,           0.
      8,   37.6346169,           0.
      9,   35.6538506,           0.
     10,   33.6730766,           0.
     11,   31.6923084,           0.
     12,   29.7115383,           0.
     13,   27.7307682,           0.
     14,        25.75,           0.
     15,   23.7692318,           0.
     16,   21.7884617,           0.
     17,   19.8076916,           0.
     18,   17.8269215,           0.
     19,   15.8461533,           0.
     20,   13.8653841,           0.
** ... 192 like lines cut
*Element, type=CPE4P
  1,   1,   2,  55,  54
  2,   2,   3,  56,  55
  3,   3,   4,  57,  56
  4,   4,   5,  58,  57
  5,   5,   6,  59,  58
  6,   6,   7,  60,  59
  7,   7,   8,  61,  60
  8,   8,   9,  62,  61
  9,   9,  10,  63,  62
 10,  10,  11,  64,  63
 11,  11,  12,  65,  64
 12,  12,  13,  66,  65
 13,  13,  14,  67,  66
 14,  14,  15,  68,  67
 15,  15,  16,  69,  68
 16,  16,  17,  70,  69
 17,  17,  18,  71,  70
 18,  18,  19,  72,  71
 19,  19,  20,  73,  72
 20,  20,  21,  74,  73
** ... 136 like lines cut
*Nset, nset=rock, generate
   1,  212,    1
*Elset, elset=rock, generate
   1,  156,    1
** Section: rock
*Solid Section, elset=rock, material=soil
,
*End Instance
**  
*Instance, name=soil-1, part=soil
*Node
      1,         -6.5,          20.
      2,         -6.5,          12.
      3,          6.5,          12.
      4,          6.5,          20.
      5,         51.5,           0.
      6,         51.5,          20.
      7,        -51.5,          20.
      8,        -51.5,           0.
      9,         -6.5,          19.
     10,         -6.5,          18.
     11,         -6.5,          17.
     12,         -6.5,          16.
     13,         -6.5,          15.
     14,         -6.5,          14.
     15,         -6.5,          13.
     16,         -5.5,          12.
     17,         -4.5,          12.
     18,         -3.5,          12.
     19,         -2.5,          12.
     20,         -1.5,          12.
** ... 2164 like lines cut
*Element, type=CPS4R
  1,   1,   9, 275,  46
  2,   9,  10, 276, 275
  3,  10,  11, 277, 276
  4,  11,  12, 278, 277
  5,  12,  13, 279, 278
  6,  13,  14, 280, 279
  7,  14,  15, 281, 280
  8,  15,   2,  16, 281
  9,  46, 275, 282,  45
 10, 275, 276, 283, 282
 11, 276, 277, 284, 283
 12, 277, 278, 285, 284
 13, 278, 279, 286, 285
 14, 279, 280, 287, 286
 15, 280, 281, 288, 287
 16, 281,  16,  17, 288
 17,  45, 282, 289,  44
 18, 282, 283, 290, 289
 19, 283, 284, 291, 290
 20, 284, 285, 292, 291
** ... 84 like lines cut
*Element, type=CPE4P
 105,  167,  168,  381,  369
 106,  168,  169,  382,  381
 107,  169,  170,  383,  382
 108,  170,  171,  384,  383
 109,  171,  172,  385,  384
 110,  172,  173,  386,  385
 111,  173,  174,  387,  386
 112,  174,  175,  388,  387
 113,  175,  176,  389,  388
 114,  176,  177,  390,  389
 115,  177,  178,  391,  390
 116,  178,  179,  392,  391
 117,  179,  180,  393,  392
 118,  180,  181,  394,  393
 119,  181,  182,  395,  394
 120,  182,  183,  396,  395
 121,  183,  184,  397,  396
 122,  184,  185,  398,  397
 123,  185,  186,  399,  398
 124,  186,  187,  400,  399
** ... 1936 like lines cut
*Nset, nset=soil, generate
    1,  2184,     1
*Elset, elset=soil, generate
    1,  2060,     1
** Section: soil
*Solid Section, elset=soil, material=soil
,
*End Instance
**  
*Nset, nset=excavation-face, instance=soil-1
   1,   2,   3,   4,   9,  10,  11,  12,  13,  14,  15,  16,  17,  18,  19,  20
  21,  22,  23,  24,  25,  26,  27,  28,  29,  30,  31,  32,  33,  34,  35,  36
  37,  38,  39,  40,  41,  42,  43,  44,  45,  46, 275, 276, 277, 278, 279, 280
 281, 282, 283, 284, 285, 286, 287, 288, 289, 290, 291, 292, 293, 294, 295, 296
 297, 298, 299, 300, 301, 302, 303, 304, 305, 306, 307, 308, 309, 310, 311, 312
 313, 314, 315, 316, 317, 318, 319, 320, 321, 322, 323, 324, 325, 326, 327, 328
 329, 330, 331, 332, 333, 334, 335, 336, 337, 338, 339, 340, 341, 342, 343, 344
 345, 346, 347, 348, 349, 350, 351, 352, 353, 354, 355, 356, 357, 358
*Elset, elset=excavation-face, instance=soil-1, generate
   1,  104,    1
*Nset, nset=gravity, instance=rock-1, generate
   1,  212,    1
*Nset, nset=gravity, instance=soil-1
    1,    2,    3,    4,    5,    6,    7,    8,    9,   10,   11,   12,   13,   14,   15,   16
   17,   18,   19,   20,   21,   22,   23,   24,   25,   26,   27,   28,   29,   30,   31,   32
   33,   34,   47,   48,   49,   50,   51,   52,   53,   54,   55,   56,   57,   58,   59,   60
   61,   62,   63,   64,   65,   66,   67,   68,   69,   70,   71,   72,   73,   74,   75,   76
   77,   78,   79,   80,   81,   82,   83,   84,   85,   86,   87,   88,   89,   90,   91,   92
   93,   94,   95,   96,   97,   98,   99,  100,  101,  102,  103,  104,  105,  106,  107,  108
  109,  110,  111,  112,  113,  114,  115,  116,  117,  118,  119,  120,  121,  122,  123,  124
  125,  126,  127,  128,  129,  130,  131,  132,  133,  134,  135,  136,  137,  138,  139,  140
  141,  142,  143,  144,  145,  146,  147,  148,  149,  150,  151,  152,  153,  154,  155,  156
  157,  158,  159,  160,  161,  162,  163,  164,  165,  166,  167,  168,  169,  170,  171,  172
  173,  174,  175,  176,  177,  178,  179,  180,  181,  182,  183,  184,  185,  186,  187,  188
  189,  190,  191,  192,  193,  194,  195,  196,  197,  198,  199,  200,  201,  202,  203,  204
  205,  206,  207,  208,  209,  210,  211,  212,  213,  214,  215,  216,  217,  218,  219,  220
  221,  222,  223,  224,  225,  226,  227,  228,  229,  230,  231,  232,  233,  234,  235,  236
  237,  238,  239,  240,  241,  242,  243,  244,  245,  246,  247,  248,  249,  250,  251,  252
  253,  254,  255,  256,  257,  258,  259,  260,  261,  262,  263,  264,  265,  266,  267,  268
  269,  270,  271,  272,  273,  274,  359,  360,  361,  362,  363,  364,  365,  366,  367,  368
  369,  370,  371,  372,  373,  374,  375,  376,  377,  378,  379,  380,  381,  382,  383,  384
  385,  386,  387,  388,  389,  390,  391,  392,  393,  394,  395,  396,  397,  398,  399,  400
  401,  402,  403,  404,  405,  406,  407,  408,  409,  410,  411,  412,  413,  414,  415,  416
** ... 111 like lines cut
*Elset, elset=gravity, instance=rock-1, generate
   1,  156,    1
*Elset, elset=gravity, instance=soil-1, generate
  105,  2060,     1
*Nset, nset=left-bc-edge, instance=rock-1, generate
  53,  212,   53
*Nset, nset=left-bc-edge, instance=soil-1
   7,   8,  91,  92,  93,  94,  95,  96,  97,  98,  99, 100, 101, 102, 103, 104
 105, 106, 107, 108, 109
*Elset, elset=left-bc-edge, instance=rock-1, generate
  52,  156,   52
*Elset, elset=left-bc-edge, instance=soil-1, generate
 2041,  2060,     1
*Nset, nset=left-prop-edge, instance=soil-1
  1,  7, 47, 48, 49, 50, 51, 52, 53, 54, 55, 56, 57, 58, 59, 60
 61, 62, 63, 64, 65, 66, 67, 68, 69, 70, 71, 72, 73, 74, 75, 76
 77, 78, 79, 80, 81, 82, 83, 84, 85, 86, 87, 88, 89, 90
*Elset, elset=left-prop-edge, instance=soil-1, generate
 1180,  2060,    20
*Nset, nset=right-bc-edge, instance=rock-1, generate
   1,  160,   53
*Nset, nset=right-bc-edge, instance=soil-1
   5,   6, 212, 213, 214, 215, 216, 217, 218, 219, 220, 221, 222, 223, 224, 225
 226, 227, 228, 229, 230
*Elset, elset=right-bc-edge, instance=rock-1, generate
   1,  105,   52
*Elset, elset=right-bc-edge, instance=soil-1, generate
  149,  1004,    45
*Nset, nset=right-prop-edge, instance=soil-1
   4,   6, 231, 232, 233, 234, 235, 236, 237, 238, 239, 240, 241, 242, 243, 244
 245, 246, 247, 248, 249, 250, 251, 252, 253, 254, 255, 256, 257, 258, 259, 260
 261, 262, 263, 264, 265, 266, 267, 268, 269, 270, 271, 272, 273, 274
*Elset, elset=right-prop-edge, instance=soil-1, generate
  960,  1004,     1
*Nset, nset=rock-bottom-bc-edge, instance=rock-1, generate
 160,  212,    1
*Elset, elset=rock-bottom-bc-edge, instance=rock-1, generate
 105,  156,    1
*Nset, nset=rock-up-bc-edge, instance=rock-1, generate
  1,  53,   1
*Elset, elset=rock-up-bc-edge, instance=rock-1, generate
  1,  52,   1
*Nset, nset=soil-bottom-pore-bc-edge, instance=soil-1
   5,   8, 110, 111, 112, 113, 114, 115, 116, 117, 118, 119, 120, 121, 122, 123
 124, 125, 126, 127, 128, 129, 130, 131, 132, 133, 134, 135, 136, 137, 138, 139
 140, 141, 142, 143, 144, 145, 146, 147, 148, 149, 150, 151, 152, 153, 154, 155
 156, 157, 158, 159, 160, 161, 162, 163, 164, 165, 166, 167, 168, 169, 170, 171
 172, 173, 174, 175, 176, 177, 178, 179, 180, 181, 182, 183, 184, 185, 186, 187
 188, 189, 190, 191, 192, 193, 194, 195, 196, 197, 198, 199, 200, 201, 202, 203
 204, 205, 206, 207, 208, 209, 210, 211
*Elset, elset=soil-bottom-pore-bc-edge, instance=soil-1
  105,  106,  107,  108,  109,  110,  111,  112,  113,  114,  115,  116,  117,  118,  119,  120
  121,  122,  123,  124,  125,  126,  127,  128,  129,  130,  131,  132,  133,  134,  135,  136
  137,  138,  139,  140,  141,  142,  143,  144,  145,  146,  147,  148,  149, 1005, 1017, 1029
 1041, 1053, 1065, 1077, 1089, 1101, 1113, 1125, 1137, 1149, 1161, 1181, 1201, 1221, 1241, 1261
 1281, 1301, 1321, 1341, 1361, 1381, 1401, 1421, 1441, 1461, 1481, 1501, 1521, 1541, 1561, 1581
 1601, 1621, 1641, 1661, 1681, 1701, 1721, 1741, 1761, 1781, 1801, 1821, 1841, 1861, 1881, 1901
 1921, 1941, 1961, 1981, 2001, 2021, 2041
*Nset, nset=soil-left-pore-bc-edge, instance=soil-1
   7,   8,  91,  92,  93,  94,  95,  96,  97,  98,  99, 100, 101, 102, 103, 104
 105, 106, 107, 108, 109
*Elset, elset=soil-left-pore-bc-edge, instance=soil-1, generate
 2041,  2060,     1
*Nset, nset=soil-right-pore-bc-edge, instance=soil-1
   5,   6, 212, 213, 214, 215, 216, 217, 218, 219, 220, 221, 222, 223, 224, 225
 226, 227, 228, 229, 230
*Elset, elset=soil-right-pore-bc-edge, instance=soil-1, generate
  149,  1004,    45
*Nset, nset=soil-up-after-pore-bc-edge, instance=soil-1
   1,   2,   3,   4,   6,   7,   9,  10,  11,  12,  13,  14,  15,  16,  17,  18
  19,  20,  21,  22,  23,  24,  25,  26,  27,  28,  29,  30,  31,  32,  33,  34
  47,  48,  49,  50,  51,  52,  53,  54,  55,  56,  57,  58,  59,  60,  61,  62
  63,  64,  65,  66,  67,  68,  69,  70,  71,  72,  73,  74,  75,  76,  77,  78
  79,  80,  81,  82,  83,  84,  85,  86,  87,  88,  89,  90, 231, 232, 233, 234
 235, 236, 237, 238, 239, 240, 241, 242, 243, 244, 245, 246, 247, 248, 249, 250
 251, 252, 253, 254, 255, 256, 257, 258, 259, 260, 261, 262, 263, 264, 265, 266
 267, 268, 269, 270, 271, 272, 273, 274
*Elset, elset=soil-up-after-pore-bc-edge, instance=soil-1
    1,    2,    3,    4,    5,    6,    7,    8,   16,   24,   32,   40,   48,   56,   64,   72
   80,   88,   96,   97,   98,   99,  100,  101,  102,  103,  104,  645,  690,  735,  780,  825
  870,  915,  960,  961,  962,  963,  964,  965,  966,  967,  968,  969,  970,  971,  972,  973
  974,  975,  976,  977,  978,  979,  980,  981,  982,  983,  984,  985,  986,  987,  988,  989
  990,  991,  992,  993,  994,  995,  996,  997,  998,  999, 1000, 1001, 1002, 1003, 1004, 1016
 1028, 1040, 1052, 1064, 1076, 1088, 1100, 1112, 1124, 1136, 1148, 1160, 1173, 1174, 1175, 1176
 1177, 1178, 1179, 1180, 1200, 1220, 1240, 1260, 1280, 1300, 1320, 1340, 1360, 1380, 1400, 1420
 1440, 1460, 1480, 1500, 1520, 1540, 1560, 1580, 1600, 1620, 1640, 1660, 1680, 1700, 1720, 1740
 1760, 1780, 1800, 1820, 1840, 1860, 1880, 1900, 1920, 1940, 1960, 1980, 2000, 2020, 2040, 2060
*Nset, nset=soil-up-before-pore-bc-edge, instance=soil-1
   1,   4,   6,   7,  35,  36,  37,  38,  39,  40,  41,  42,  43,  44,  45,  46
  47,  48,  49,  50,  51,  52,  53,  54,  55,  56,  57,  58,  59,  60,  61,  62
  63,  64,  65,  66,  67,  68,  69,  70,  71,  72,  73,  74,  75,  76,  77,  78
  79,  80,  81,  82,  83,  84,  85,  86,  87,  88,  89,  90, 231, 232, 233, 234
 235, 236, 237, 238, 239, 240, 241, 242, 243, 244, 245, 246, 247, 248, 249, 250
 251, 252, 253, 254, 255, 256, 257, 258, 259, 260, 261, 262, 263, 264, 265, 266
 267, 268, 269, 270, 271, 272, 273, 274
*Elset, elset=soil-up-before-pore-bc-edge, instance=soil-1
    1,    9,   17,   25,   33,   41,   49,   57,   65,   73,   81,   89,   97,  960,  961,  962
  963,  964,  965,  966,  967,  968,  969,  970,  971,  972,  973,  974,  975,  976,  977,  978
  979,  980,  981,  982,  983,  984,  985,  986,  987,  988,  989,  990,  991,  992,  993,  994
  995,  996,  997,  998,  999, 1000, 1001, 1002, 1003, 1004, 1180, 1200, 1220, 1240, 1260, 1280
 1300, 1320, 1340, 1360, 1380, 1400, 1420, 1440, 1460, 1480, 1500, 1520, 1540, 1560, 1580, 1600
 1620, 1640, 1660, 1680, 1700, 1720, 1740, 1760, 1780, 1800, 1820, 1840, 1860, 1880, 1900, 1920
 1940, 1960, 1980, 2000, 2020, 2040, 2060
*Elset, elset=xfem-ele-set, instance=soil-1, generate
    1,  2060,     1
*Elset, elset=_penetration-surface_S3, internal, instance=soil-1
 1641,
*Surface, type=ELEMENT, name=penetration-surface, type=XFEM
Crack-1
*Elset, elset=_rock-master_S1, internal, instance=rock-1, generate
  1,  52,   1
*Surface, type=ELEMENT, name=rock-master
_rock-master_S1, S1
*Elset, elset=_rock-up-bc-edge_S1, internal, instance=rock-1, generate
  1,  52,   1
*Surface, type=ELEMENT, name=rock-up-bc-edge
_rock-up-bc-edge_S1, S1
*Elset, elset=_soil-slave_S1, internal, instance=soil-1, generate
 105,  149,    1
*Elset, elset=_soil-slave_S4, internal, instance=soil-1
 1005, 1017, 1029, 1041, 1053, 1065, 1077, 1089, 1101, 1113, 1125, 1137, 1149, 1161, 1181, 1201
 1221, 1241, 1261, 1281, 1301, 1321, 1341, 1361, 1381, 1401, 1421, 1441, 1461, 1481, 1501, 1521
 1541, 1561, 1581, 1601, 1621, 1641, 1661, 1681, 1701, 1721, 1741, 1761, 1781, 1801, 1821, 1841
 1861, 1881, 1901, 1921, 1941, 1961, 1981, 2001, 2021, 2041
*Surface, type=ELEMENT, name=soil-slave
_soil-slave_S1, S1
_soil-slave_S4, S4
*Nset, nset=soil-bottom-pore-bc-edge_PP_, internal, instance=soil-1
   5,   8, 110, 111, 112, 113, 114, 115, 116, 117, 118, 119, 120, 121, 122, 123
 124, 125, 126, 127, 128, 129, 130, 131, 132, 133, 134, 135, 136, 137, 138, 139
 140, 141, 142, 143, 144, 145, 146, 147, 148, 149, 150, 151, 152, 153, 154, 155
 156, 157, 158, 159, 160, 161, 162, 163, 164, 165, 166, 167, 168, 169, 170, 171
 172, 173, 174, 175, 176, 177, 178, 179, 180, 181, 182, 183, 184, 185, 186, 187
 188, 189, 190, 191, 192, 193, 194, 195, 196, 197, 198, 199, 200, 201, 202, 203
 204, 205, 206, 207, 208, 209, 210, 211
*Nset, nset=soil-left-pore-bc-edge_PP_, internal, instance=soil-1
   7,   8,  91,  92,  93,  94,  95,  96,  97,  98,  99, 100, 101, 102, 103, 104
 105, 106, 107, 108, 109
*Nset, nset=soil-right-pore-bc-edge_PP_, internal, instance=soil-1
   5,   6, 212, 213, 214, 215, 216, 217, 218, 219, 220, 221, 222, 223, 224, 225
 226, 227, 228, 229, 230
*Nset, nset=soil-up-before-pore-bc-edge_PP_, internal, instance=soil-1
   1,   4,   6,   7,  35,  36,  37,  38,  39,  40,  41,  42,  43,  44,  45,  46
  47,  48,  49,  50,  51,  52,  53,  54,  55,  56,  57,  58,  59,  60,  61,  62
  63,  64,  65,  66,  67,  68,  69,  70,  71,  72,  73,  74,  75,  76,  77,  78
  79,  80,  81,  82,  83,  84,  85,  86,  87,  88,  89,  90, 231, 232, 233, 234
 235, 236, 237, 238, 239, 240, 241, 242, 243, 244, 245, 246, 247, 248, 249, 250
 251, 252, 253, 254, 255, 256, 257, 258, 259, 260, 261, 262, 263, 264, 265, 266
 267, 268, 269, 270, 271, 272, 273, 274
*Nset, nset=soil-up-after-pore-bc-edge_PP_, internal, instance=soil-1
   1,   2,   3,   4,   6,   7,   9,  10,  11,  12,  13,  14,  15,  16,  17,  18
  19,  20,  21,  22,  23,  24,  25,  26,  27,  28,  29,  30,  31,  32,  33,  34
  47,  48,  49,  50,  51,  52,  53,  54,  55,  56,  57,  58,  59,  60,  61,  62
  63,  64,  65,  66,  67,  68,  69,  70,  71,  72,  73,  74,  75,  76,  77,  78
  79,  80,  81,  82,  83,  84,  85,  86,  87,  88,  89,  90, 231, 232, 233, 234
 235, 236, 237, 238, 239, 240, 241, 242, 243, 244, 245, 246, 247, 248, 249, 250
 251, 252, 253, 254, 255, 256, 257, 258, 259, 260, 261, 262, 263, 264, 265, 266
 267, 268, 269, 270, 271, 272, 273, 274
*Enrichment, name=Crack-1, type=PROPAGATION CRACK, elset=soil-1.soil, interaction=IntProp-1
*End Assembly
*Amplitude, name=volumerate
             0.,              0.,             50.,           -200.,             100.,           -250.
*Amplitude, name=volumerate_1
             0.,              -250,             25.,           -250.,             50.,           -250.
*Amplitude, name=volumerate_2
             0.,              -300,             25.,           -325.,             50.,           -350.
** 
** MATERIALS
** 
*Material, name=soil
*Damage Initiation, criterion=MAXPS, position=CRACKTIP, tolerance=0.1
200000.,
*Damage Evolution, type=ENERGY, mixed mode behavior=POWER LAW, power=1.
10000.,10000.,10000.
*Damage Stabilization
0.0001
*Density
1616.,
*Elastic
 5e+07, 0.3
*Fluid Leakoff
 5.879e-16, 5.879e-16
*Gap Flow
 1e-06,
*Permeability, specific=10000.
 2.418e-05,0.
** 
** INTERACTION PROPERTIES
** 
*Surface Interaction, name=IntProp-1
1.,
*Surface Interaction, name=IntProp-2
1.,
*Friction
0.,
*Surface Behavior, pressure-overclosure=HARD
*Initial Conditions, type=ENRICHMENT
soil-1.106, 1,Crack-1, -0.5, -1.
soil-1.106, 2,Crack-1, 0.5, -1.
soil-1.106, 3,Crack-1, 0.5, 0.
soil-1.106, 4,Crack-1, -0.5, 0.
** 
** BOUNDARY CONDITIONS
*Boundary, phantom=node
soil-1.168, 2,2
soil-1.169, 2,2
** 
** Name: left-bc Type: Displacement/Rotation
*Boundary
left-bc-edge, 1, 1
left-bc-edge, 2, 2
** Name: right-bc Type: Displacement/Rotation
*Boundary
right-bc-edge, 1, 1
right-bc-edge, 2, 2
** Name: rock-bottom-bc Type: Displacement/Rotation
*Boundary
rock-bottom-bc-edge, 1, 1
rock-bottom-bc-edge, 2, 2
** Name: rock-up-bc Type: Displacement/Rotation
*Boundary
rock-up-bc-edge, 1, 1
rock-up-bc-edge, 2, 2
** 
** PREDEFINED FIELDS
** 
** Name: geo-rock   Type: Geostatic stress
*Initial Conditions, type=STRESS, GEOSTATIC
rock-1.rock, -323200., 0., -404000., -5., 0.7, 0.7
** Name: geo-soil   Type: Geostatic stress
*Initial Conditions, type=STRESS, GEOSTATIC
soil-1.soil, 0., 20., -323200., 0., 0.7, 0.7
** Name: pore   Type: Pore pressure Using Field: AnalyticalField-1
*Initial Conditions, TYPE=PORE PRESSURE
soil-1.1, 0.
soil-1.2, 80000.
soil-1.3, 80000.
soil-1.4, 0.
soil-1.5, 200000.
soil-1.6, 0.
soil-1.7, 0.
soil-1.8, 200000.
soil-1.9, 10000.
soil-1.10, 20000.
soil-1.11, 30000.
soil-1.12, 40000.
soil-1.13, 50000.
soil-1.14, 60000.
soil-1.15, 70000.
soil-1.16, 80000.
soil-1.17, 80000.
soil-1.18, 80000.
soil-1.19, 80000.
soil-1.20, 80000.
** ... 2164 like lines cut
** Name: void-rock   Type: Void ratio
*Initial Conditions, TYPE=RATIO
rock-1.rock, 0.001
** Name: void-soil   Type: Void ratio
*Initial Conditions, TYPE=RATIO
soil-1.soil, 0.64
** 
** INTERACTIONS
** 
** Interaction: Int-1
*Contact Pair, interaction=IntProp-2, type=SURFACE TO SURFACE
soil-slave, rock-master
** ----------------------------------------------------------------
** 
** STEP: gravity
** 
*Step, name=gravity, nlgeom=YES, unsymm=YES
*Geostatic
** 
** BOUNDARY CONDITIONS
** 
** Name: bottom-pore-bc Type: Pore pressure
*Boundary
soil-bottom-pore-bc-edge_PP_, 8, 8, 200000.
** Name: left-pore-bc Type: Pore pressure Using Analytical Field: AnalyticalField-1
*Boundary
soil-1.7, 8, 8, 0.
soil-1.8, 8, 8, 200000.
soil-1.91, 8, 8, 10000.
soil-1.92, 8, 8, 20000.
soil-1.93, 8, 8, 30000.
soil-1.94, 8, 8, 40000.
soil-1.95, 8, 8, 50000.
soil-1.96, 8, 8, 60000.
soil-1.97, 8, 8, 70000.
soil-1.98, 8, 8, 80000.
soil-1.99, 8, 8, 90000.
soil-1.100, 8, 8, 100000.
soil-1.101, 8, 8, 110000.
soil-1.102, 8, 8, 120000.
soil-1.103, 8, 8, 130000.
soil-1.104, 8, 8, 140000.
soil-1.105, 8, 8, 150000.
soil-1.106, 8, 8, 160000.
soil-1.107, 8, 8, 170000.
soil-1.108, 8, 8, 180000.
soil-1.109, 8, 8, 190000.
** Name: right-pore-bc Type: Pore pressure Using Analytical Field: AnalyticalField-1
*Boundary
soil-1.5, 8, 8, 200000.
soil-1.6, 8, 8, 0.
soil-1.212, 8, 8, 190000.
soil-1.213, 8, 8, 180000.
soil-1.214, 8, 8, 170000.
soil-1.215, 8, 8, 160000.
soil-1.216, 8, 8, 150000.
soil-1.217, 8, 8, 140000.
soil-1.218, 8, 8, 130000.
soil-1.219, 8, 8, 120000.
soil-1.220, 8, 8, 110000.
soil-1.221, 8, 8, 100000.
soil-1.222, 8, 8, 90000.
soil-1.223, 8, 8, 80000.
soil-1.224, 8, 8, 70000.
soil-1.225, 8, 8, 60000.
soil-1.226, 8, 8, 50000.
soil-1.227, 8, 8, 40000.
soil-1.228, 8, 8, 30000.
soil-1.229, 8, 8, 20000.
soil-1.230, 8, 8, 10000.
** Name: up-pore-bc Type: Pore pressure
*Boundary
soil-up-before-pore-bc-edge_PP_, 8, 8
** 
** LOADS
** 
** Name: gravity   Type: Gravity
*Dload
gravity, GRAV, 10., 0., -1.
** 
** OUTPUT REQUESTS
** 
*Restart, write, frequency=0
** 
** FIELD OUTPUT: F-Output-1
** 
*Output, field
*Node Output
CF, PHILSM, POR, PSILSM, RF, U
*Element Output, directions=YES
LE, S, SAT, VOIDR
*Contact Output
CDISP, CSTRESS
*element output,elset=xfem-ele-set
PFOPENXFEM
PORPRES
PFOPENXFEMCOMP
PORPRESCOMP
** 
** HISTORY OUTPUT: H-Output-1
** 
*Output, history, variable=PRESELECT
*End Step
** ----------------------------------------------------------------
** 
** STEP: execavation
** 
*Step, name=execavation, nlgeom=YES, unsymm=YES
*Soils, consolidation, end=PERIOD, utol=1e+09
1., 1., 1e-12, 1., 
** 
** BOUNDARY CONDITIONS
** 
** Name: bottom-pore-bc Type: Pore pressure
*Boundary, op=NEW
** Name: exe-bottom-pore-bc Type: Pore pressure
*Boundary, op=NEW
soil-bottom-pore-bc-edge_PP_, 8, 8, 200000.
** Name: exe-left-pore-bc Type: Pore pressure Using Analytical Field: AnalyticalField-1
*Boundary, op=NEW
soil-1.7, 8, 8, 0.
soil-1.8, 8, 8, 200000.
soil-1.91, 8, 8, 10000.
soil-1.92, 8, 8, 20000.
soil-1.93, 8, 8, 30000.
soil-1.94, 8, 8, 40000.
soil-1.95, 8, 8, 50000.
soil-1.96, 8, 8, 60000.
soil-1.97, 8, 8, 70000.
soil-1.98, 8, 8, 80000.
soil-1.99, 8, 8, 90000.
soil-1.100, 8, 8, 100000.
soil-1.101, 8, 8, 110000.
soil-1.102, 8, 8, 120000.
soil-1.103, 8, 8, 130000.
soil-1.104, 8, 8, 140000.
soil-1.105, 8, 8, 150000.
soil-1.106, 8, 8, 160000.
soil-1.107, 8, 8, 170000.
soil-1.108, 8, 8, 180000.
soil-1.109, 8, 8, 190000.
** Name: exe-right-pore-bc Type: Pore pressure Using Analytical Field: AnalyticalField-1
*Boundary, op=NEW
soil-1.5, 8, 8, 200000.
soil-1.6, 8, 8, 0.
soil-1.212, 8, 8, 190000.
soil-1.213, 8, 8, 180000.
soil-1.214, 8, 8, 170000.
soil-1.215, 8, 8, 160000.
soil-1.216, 8, 8, 150000.
soil-1.217, 8, 8, 140000.
soil-1.218, 8, 8, 130000.
soil-1.219, 8, 8, 120000.
soil-1.220, 8, 8, 110000.
soil-1.221, 8, 8, 100000.
soil-1.222, 8, 8, 90000.
soil-1.223, 8, 8, 80000.
soil-1.224, 8, 8, 70000.
soil-1.225, 8, 8, 60000.
soil-1.226, 8, 8, 50000.
soil-1.227, 8, 8, 40000.
soil-1.228, 8, 8, 30000.
soil-1.229, 8, 8, 20000.
soil-1.230, 8, 8, 10000.
** Name: exe-up-pore-bc Type: Pore pressure
*Boundary, op=NEW
soil-up-before-pore-bc-edge_PP_, 8, 8
** Name: left-bc Type: Displacement/Rotation
*Boundary, op=NEW
left-bc-edge, 1, 1
left-bc-edge, 2, 2
** Name: left-pore-bc Type: Pore pressure Using Analytical Field: AnalyticalField-1
*Boundary, op=NEW
** Name: left-prop Type: Displacement/Rotation
*Boundary, op=NEW
left-prop-edge, 1, 1
left-prop-edge, 2, 2
** Name: right-bc Type: Displacement/Rotation
*Boundary, op=NEW
right-bc-edge, 1, 1
right-bc-edge, 2, 2
** Name: right-pore-bc Type: Pore pressure Using Analytical Field: AnalyticalField-1
*Boundary, op=NEW
** Name: right-prop Type: Displacement/Rotation
*Boundary, op=NEW
right-prop-edge, 1, 1
right-prop-edge, 2, 2
** Name: rock-bottom-bc Type: Displacement/Rotation
*Boundary, op=NEW
rock-bottom-bc-edge, 1, 1
rock-bottom-bc-edge, 2, 2
** Name: rock-up-bc Type: Displacement/Rotation
*Boundary, op=NEW
rock-up-bc-edge, 1, 1
rock-up-bc-edge, 2, 2
** Name: up-pore-bc Type: Pore pressure
*Boundary, op=NEW
** 
** INTERACTIONS
** 
** Interaction: excavation
*Model Change, remove
excavation-face, 
** 
** OUTPUT REQUESTS
** 
*Restart, write, frequency=0
** 
** FIELD OUTPUT: F-Output-1
** 
*Output, field
*Node Output
CF, PHILSM, POR, PSILSM, RF, U
*Element Output, directions=YES
LE, S, SAT, VOIDR
*Contact Output
CDISP, CSTRESS
*element output,elset=xfem-ele-set
PFOPENXFEM
PORPRES
PFOPENXFEMCOMP
PORPRESCOMP
** 
** HISTORY OUTPUT: H-Output-1
** 
*Output, history, variable=PRESELECT
*End Step
** ----------------------------------------------------------------
** 
** STEP: pore-balance
** 
*Step, name=pore-balance, nlgeom=YES, unsymm=YES
*Soils, consolidation, end=PERIOD, utol=1e+09
0.05, 1., 1e-12, 1., 
** 
** BOUNDARY CONDITIONS
** 
** Name: after-exe-up-pore-bc Type: Pore pressure
*Boundary
soil-up-after-pore-bc-edge_PP_, 8, 8
** 
** OUTPUT REQUESTS
** 
*Restart, write, frequency=0
** 
** FIELD OUTPUT: F-Output-1
** 
*Output, field
*Node Output
CF, PHILSM, POR, PSILSM, RF, U
*Element Output, directions=YES
LE, S, SAT, VOIDR
*Contact Output
CDISP, CSTRESS
*element output,elset=xfem-ele-set
PFOPENXFEM
PORPRES
PFOPENXFEMCOMP
PORPRESCOMP
** 
** HISTORY OUTPUT: H-Output-1
** 
*Output, history, variable=PRESELECT
*End Step
** ----------------------------------------------------------------
** 
** STEP: injection
** 
*Step, name=injection, nlgeom=YES, unsymm=YES
*Soils, consolidation, end=PERIOD, utol=1e+09,stabilize=0.0002, allsdtol=0.05, continue=NO
0.05, 100., 1e-12, 5., 
*cflow,amplitude=volumerate,phantom=edge
soil-1.168, soil-1.169, 5e-05
** 
** BOUNDARY CONDITIONS
** 
** Name: prop_bc Type: Displacement/Rotation
*Boundary
soil-up-after-pore-bc-edge, 1, 1
soil-up-after-pore-bc-edge, 2, 2
** 
** CONTROLS
** 
*Controls, reset
*Controls, analysis=discontinuous
*Controls, parameters=time incrementation
, , , , , , , 20, , , 
** 
** OUTPUT REQUESTS
** 
*Restart, write, frequency=0
** 
** FIELD OUTPUT: F-Output-1
** 
*Output, field
*Node Output
CF, PHILSM, POR, PSILSM, RF, U
*Element Output, directions=YES
LE, S, SAT, VOIDR
*Contact Output
CDISP, CSTRESS
*element output,elset=xfem-ele-set
PFOPENXFEM
PORPRES
PFOPENXFEMCOMP
PORPRESCOMP
** 
** HISTORY OUTPUT: H-Output-1
** 
*Output, history, variable=PRESELECT
*End Step
** ----------------------------------------------------------------
** 
** STEP: injection_1
** 
*Step, name=injection_1, nlgeom=YES, unsymm=YES
*Soils, consolidation, end=PERIOD, utol=1e+09,stabilize=0.0002, allsdtol=0.05, continue=NO
0.05, 100., 1e-12, 5., 
*cflow,amplitude=volumerate_1,phantom=edge
soil-1.168, soil-1.169, 5e-05
** 
** BOUNDARY CONDITIONS
** 
** Name: prop_bc Type: Displacement/Rotation
*Boundary
soil-up-after-pore-bc-edge, 1, 1
soil-up-after-pore-bc-edge, 2, 2
** 
** CONTROLS
** 
*Controls, reset
*Controls, analysis=discontinuous
*Controls, parameters=time incrementation
, , , , , , , 20, , , 
** 
** OUTPUT REQUESTS
** 
*Restart, write, frequency=0
** 
** FIELD OUTPUT: F-Output-1
** 
*Output, field
*Node Output
CF, PHILSM, POR, PSILSM, RF, U
*Element Output, directions=YES
LE, S, SAT, VOIDR
*Contact Output
CDISP, CSTRESS
*element output,elset=xfem-ele-set
PFOPENXFEM
PORPRES
PFOPENXFEMCOMP
PORPRESCOMP
** 
** HISTORY OUTPUT: H-Output-1
** 
*Output, history, variable=PRESELECT
*End Step
** ----------------------------------------------------------------
** 
** STEP: injection_2
** 
*Step, name=injection_2, nlgeom=YES, unsymm=YES
*Soils, consolidation, end=PERIOD, utol=1e+09,stabilize=0.0002, allsdtol=0.05, continue=NO
0.05, 100., 1e-12, 5., 
*cflow,amplitude=volumerate_2,phantom=edge
soil-1.168, soil-1.169, 5e-05
** 
** BOUNDARY CONDITIONS
** 
** Name: prop_bc Type: Displacement/Rotation
*Boundary
soil-up-after-pore-bc-edge, 1, 1
soil-up-after-pore-bc-edge, 2, 2
** 
** CONTROLS
** 
*Controls, reset
*Controls, analysis=discontinuous
*Controls, parameters=time incrementation
, , , , , , , 20, , , 
** 
** OUTPUT REQUESTS
** 
*Restart, write, frequency=0
** 
** FIELD OUTPUT: F-Output-1
** 
*Output, field
*Node Output
CF, PHILSM, POR, PSILSM, RF, U
*Element Output, directions=YES
LE, S, SAT, VOIDR
*Contact Output
CDISP, CSTRESS
*element output,elset=xfem-ele-set
PFOPENXFEM
PORPRES
PFOPENXFEMCOMP
PORPRESCOMP
** 
** HISTORY OUTPUT: H-Output-1
** 
*Output, history, variable=PRESELECT
*End Step
