*Heading
** Job name: Job-centrifuge Model name: Model-1
** Generated by: Abaqus/CAE 2016
*Preprint, echo=NO, model=NO, history=NO, contact=NO
**
** PARTS
**
*Part, name=middle-crack
*End Part
**  
*Part, name=rock
*End Part
**  
*Part, name=soil
*End Part
**  
**
** ASSEMBLY
**
*Assembly, name=Assembly
**  
*Instance, name=middle-crack-1, part=middle-crack
*End Instance
**  
*Instance, name=rock-1, part=rock
*Node
      1,         40.5,           0.
      2,   38.5243912,           0.
      3,   36.5487823,           0.
      4,   34.5731697,           0.
      5,   32.5975609,           0.
      6,   30.6219501,           0.
      7,   28.6463413,           0.
      8,   26.6707306,           0.
      9,   24.6951218,           0.
     10,   22.7195129,           0.
     11,   20.7439041,           0.
     12,   18.7682934,           0.
     13,   16.7926826,           0.
     14,   14.8170729,           0.
     15,   12.8414621,           0.
     16,   10.8658524,           0.
     17,   8.89024353,           0.
     18,   6.91463423,           0.
     19,   4.93902445,           0.
     20,   2.96341443,           0.
** ... 148 like lines cut
*Element, type=CPE4P
  1,   1,   2,  44,  43
  2,   2,   3,  45,  44
  3,   3,   4,  46,  45
  4,   4,   5,  47,  46
  5,   5,   6,  48,  47
  6,   6,   7,  49,  48
  7,   7,   8,  50,  49
  8,   8,   9,  51,  50
  9,   9,  10,  52,  51
 10,  10,  11,  53,  52
 11,  11,  12,  54,  53
 12,  12,  13,  55,  54
 13,  13,  14,  56,  55
 14,  14,  15,  57,  56
 15,  15,  16,  58,  57
 16,  16,  17,  59,  58
 17,  17,  18,  60,  59
 18,  18,  19,  61,  60
 19,  19,  20,  62,  61
 20,  20,  21,  63,  62
** ... 103 like lines cut
*Nset, nset=rock, generate
   1,  168,    1
*Elset, elset=rock, generate
   1,  123,    1
** Section: rock
*Solid Section, elset=rock, material=soil
,
*End Instance
**  
*Instance, name=soil-1, part=soil
*Node
      1,         -18.,          20.
      2,         -18.,          12.
      3,          18.,          12.
      4,          18.,          20.
      5,         40.5,           0.
      6,         40.5,          20.
      7,        -40.5,          20.
      8,        -40.5,           0.
      9,         -18.,          19.
     10,         -18.,          18.
     11,         -18.,          17.
     12,         -18.,          16.
     13,         -18.,          15.
     14,         -18.,          14.
     15,         -18.,          13.
     16,         -17.,          12.
     17,         -16.,          12.
     18,         -15.,          12.
     19,         -14.,          12.
     20,         -13.,          12.
** ... 1723 like lines cut
*Element, type=CPS4R
  1,   1,   9, 256,  92
  2,   9,  10, 257, 256
  3,  10,  11, 258, 257
  4,  11,  12, 259, 258
  5,  12,  13, 260, 259
  6,  13,  14, 261, 260
  7,  14,  15, 262, 261
  8,  15,   2,  16, 262
  9,  92, 256, 263,  91
 10, 256, 257, 264, 263
 11, 257, 258, 265, 264
 12, 258, 259, 266, 265
 13, 259, 260, 267, 266
 14, 260, 261, 268, 267
 15, 261, 262, 269, 268
 16, 262,  16,  17, 269
 17,  91, 263, 270,  90
 18, 263, 264, 271, 270
 19, 264, 265, 272, 271
 20, 265, 266, 273, 272
** ... 268 like lines cut
*Element, type=CPE4P
 289,  192,  193,  523,  511
 290,  193,  194,  524,  523
 291,  194,  195,  525,  524
 292,  195,  196,  526,  525
 293,  196,  197,  527,  526
 294,  197,  198,  528,  527
 295,  198,  199,  529,  528
 296,  199,  200,  530,  529
 297,  200,  201,  531,  530
 298,  201,  202,  532,  531
 299,  202,  203,  533,  532
 300,  203,  204,  534,  533
 301,  204,  205,  535,  534
 302,  205,  206,  536,  535
 303,  206,  207,  537,  536
 304,  207,  208,  538,  537
 305,  208,  209,  539,  538
 306,  209,  210,  540,  539
 307,  210,  211,  541,  540
 308,  211,  212,  542,  541
** ... 1332 like lines cut
*Nset, nset=soil, generate
    1,  1743,     1
*Elset, elset=soil, generate
    1,  1640,     1
** Section: soil
*Solid Section, elset=soil, material=soil
,
*End Instance
**  
*Nset, nset=excavation-face, instance=soil-1
   1,   2,   3,   4,   9,  10,  11,  12,  13,  14,  15,  16,  17,  18,  19,  20
  21,  22,  23,  24,  25,  26,  27,  28,  29,  30,  31,  32,  33,  34,  35,  36
  37,  38,  39,  40,  41,  42,  43,  44,  45,  46,  47,  48,  49,  50,  51,  52
  53,  54,  55,  56,  57,  58,  59,  60,  61,  62,  63,  64,  65,  66,  67,  68
  69,  70,  71,  72,  73,  74,  75,  76,  77,  78,  79,  80,  81,  82,  83,  84
  85,  86,  87,  88,  89,  90,  91,  92, 256, 257, 258, 259, 260, 261, 262, 263
 264, 265, 266, 267, 268, 269, 270, 271, 272, 273, 274, 275, 276, 277, 278, 279
 280, 281, 282, 283, 284, 285, 286, 287, 288, 289, 290, 291, 292, 293, 294, 295
 296, 297, 298, 299, 300, 301, 302, 303, 304, 305, 306, 307, 308, 309, 310, 311
 312, 313, 314, 315, 316, 317, 318, 319, 320, 321, 322, 323, 324, 325, 326, 327
 328, 329, 330, 331, 332, 333, 334, 335, 336, 337, 338, 339, 340, 341, 342, 343
 344, 345, 346, 347, 348, 349, 350, 351, 352, 353, 354, 355, 356, 357, 358, 359
 360, 361, 362, 363, 364, 365, 366, 367, 368, 369, 370, 371, 372, 373, 374, 375
 376, 377, 378, 379, 380, 381, 382, 383, 384, 385, 386, 387, 388, 389, 390, 391
 392, 393, 394, 395, 396, 397, 398, 399, 400, 401, 402, 403, 404, 405, 406, 407
 408, 409, 410, 411, 412, 413, 414, 415, 416, 417, 418, 419, 420, 421, 422, 423
 424, 425, 426, 427, 428, 429, 430, 431, 432, 433, 434, 435, 436, 437, 438, 439
 440, 441, 442, 443, 444, 445, 446, 447, 448, 449, 450, 451, 452, 453, 454, 455
 456, 457, 458, 459, 460, 461, 462, 463, 464, 465, 466, 467, 468, 469, 470, 471
 472, 473, 474, 475, 476, 477, 478, 479, 480, 481, 482, 483, 484, 485, 486, 487
 488, 489, 490, 491, 492, 493, 494, 495, 496, 497, 498, 499, 500
*Elset, elset=excavation-face, instance=soil-1, generate
   1,  288,    1
*Nset, nset=gravity, instance=rock-1, generate
   1,  168,    1
*Nset, nset=gravity, instance=soil-1
    1,    2,    3,    4,    5,    6,    7,    8,    9,   10,   11,   12,   13,   14,   15,   16
   17,   18,   19,   20,   21,   22,   23,   24,   25,   26,   27,   28,   29,   30,   31,   32
   33,   34,   35,   36,   37,   38,   39,   40,   41,   42,   43,   44,   45,   46,   47,   48
   49,   50,   51,   52,   53,   54,   55,   56,   57,   93,   94,   95,   96,   97,   98,   99
  100,  101,  102,  103,  104,  105,  106,  107,  108,  109,  110,  111,  112,  113,  114,  115
  116,  117,  118,  119,  120,  121,  122,  123,  124,  125,  126,  127,  128,  129,  130,  131
  132,  133,  134,  135,  136,  137,  138,  139,  140,  141,  142,  143,  144,  145,  146,  147
  148,  149,  150,  151,  152,  153,  154,  155,  156,  157,  158,  159,  160,  161,  162,  163
  164,  165,  166,  167,  168,  169,  170,  171,  172,  173,  174,  175,  176,  177,  178,  179
  180,  181,  182,  183,  184,  185,  186,  187,  188,  189,  190,  191,  192,  193,  194,  195
  196,  197,  198,  199,  200,  201,  202,  203,  204,  205,  206,  207,  208,  209,  210,  211
  212,  213,  214,  215,  216,  217,  218,  219,  220,  221,  222,  223,  224,  225,  226,  227
  228,  229,  230,  231,  232,  233,  234,  235,  236,  237,  238,  239,  240,  241,  242,  243
  244,  245,  246,  247,  248,  249,  250,  251,  252,  253,  254,  255,  501,  502,  503,  504
  505,  506,  507,  508,  509,  510,  511,  512,  513,  514,  515,  516,  517,  518,  519,  520
  521,  522,  523,  524,  525,  526,  527,  528,  529,  530,  531,  532,  533,  534,  535,  536
  537,  538,  539,  540,  541,  542,  543,  544,  545,  546,  547,  548,  549,  550,  551,  552
  553,  554,  555,  556,  557,  558,  559,  560,  561,  562,  563,  564,  565,  566,  567,  568
  569,  570,  571,  572,  573,  574,  575,  576,  577,  578,  579,  580,  581,  582,  583,  584
  585,  586,  587,  588,  589,  590,  591,  592,  593,  594,  595,  596,  597,  598,  599,  600
** ... 72 like lines cut
*Elset, elset=gravity, instance=rock-1, generate
   1,  123,    1
*Elset, elset=gravity, instance=soil-1, generate
  289,  1640,     1
*Nset, nset=left-bc-edge, instance=rock-1, generate
  42,  168,   42
*Nset, nset=left-bc-edge, instance=soil-1
   7,   8, 115, 116, 117, 118, 119, 120, 121, 122, 123, 124, 125, 126, 127, 128
 129, 130, 131, 132, 133
*Elset, elset=left-bc-edge, instance=rock-1, generate
  41,  123,   41
*Elset, elset=left-bc-edge, instance=soil-1, generate
 1621,  1640,     1
*Nset, nset=left-prop-edge, instance=soil-1
  1,  2,  9, 10, 11, 12, 13, 14, 15
*Elset, elset=left-prop-edge, instance=soil-1
    1,    2,    3,    4,    5,    6,    7,    8, 1193, 1194, 1195, 1196, 1197, 1198, 1199, 1200
*Nset, nset=right-bc-edge, instance=rock-1, generate
   1,  127,   42
*Nset, nset=right-bc-edge, instance=soil-1
   5,   6, 215, 216, 217, 218, 219, 220, 221, 222, 223, 224, 225, 226, 227, 228
 229, 230, 231, 232, 233
*Elset, elset=right-bc-edge, instance=rock-1, generate
  1,  83,  41
*Elset, elset=right-bc-edge, instance=soil-1, generate
 311,  748,   23
*Nset, nset=right-prop-edge, instance=soil-1
  3,  4, 51, 52, 53, 54, 55, 56, 57
*Elset, elset=right-prop-edge, instance=soil-1
 281, 282, 283, 284, 285, 286, 287, 288, 565, 588, 611, 634, 657, 680, 703, 726
*Nset, nset=rock-bottom-bc-edge, instance=rock-1, generate
 127,  168,    1
*Elset, elset=rock-bottom-bc-edge, instance=rock-1, generate
  83,  123,    1
*Nset, nset=rock-up-bc-edge, instance=rock-1, generate
  1,  42,   1
*Elset, elset=rock-up-bc-edge, instance=rock-1, generate
  1,  41,   1
*Nset, nset=soil-bottom-pore-bc-edge, instance=soil-1
   5,   8, 134, 135, 136, 137, 138, 139, 140, 141, 142, 143, 144, 145, 146, 147
 148, 149, 150, 151, 152, 153, 154, 155, 156, 157, 158, 159, 160, 161, 162, 163
 164, 165, 166, 167, 168, 169, 170, 171, 172, 173, 174, 175, 176, 177, 178, 179
 180, 181, 182, 183, 184, 185, 186, 187, 188, 189, 190, 191, 192, 193, 194, 195
 196, 197, 198, 199, 200, 201, 202, 203, 204, 205, 206, 207, 208, 209, 210, 211
 212, 213, 214
*Elset, elset=soil-bottom-pore-bc-edge, instance=soil-1
  289,  290,  291,  292,  293,  294,  295,  296,  297,  298,  299,  300,  301,  302,  303,  304
  305,  306,  307,  308,  309,  310,  311,  749,  761,  773,  785,  797,  809,  821,  833,  845
  857,  869,  881,  893,  905,  917,  929,  941,  953,  965,  977,  989, 1001, 1013, 1025, 1037
 1049, 1061, 1073, 1085, 1097, 1109, 1121, 1133, 1145, 1157, 1169, 1181, 1201, 1221, 1241, 1261
 1281, 1301, 1321, 1341, 1361, 1381, 1401, 1421, 1441, 1461, 1481, 1501, 1521, 1541, 1561, 1581
 1601, 1621
*Nset, nset=soil-left-pore-bc-edge, instance=soil-1
   7,   8, 115, 116, 117, 118, 119, 120, 121, 122, 123, 124, 125, 126, 127, 128
 129, 130, 131, 132, 133
*Elset, elset=soil-left-pore-bc-edge, instance=soil-1, generate
 1621,  1640,     1
*Nset, nset=soil-right-pore-bc-edge, instance=soil-1
   5,   6, 215, 216, 217, 218, 219, 220, 221, 222, 223, 224, 225, 226, 227, 228
 229, 230, 231, 232, 233
*Elset, elset=soil-right-pore-bc-edge, instance=soil-1, generate
 311,  748,   23
*Nset, nset=soil-up-after-pore-bc-edge, instance=soil-1
   1,   2,   3,   4,   6,   7,   9,  10,  11,  12,  13,  14,  15,  16,  17,  18
  19,  20,  21,  22,  23,  24,  25,  26,  27,  28,  29,  30,  31,  32,  33,  34
  35,  36,  37,  38,  39,  40,  41,  42,  43,  44,  45,  46,  47,  48,  49,  50
  51,  52,  53,  54,  55,  56,  57,  93,  94,  95,  96,  97,  98,  99, 100, 101
 102, 103, 104, 105, 106, 107, 108, 109, 110, 111, 112, 113, 114, 234, 235, 236
 237, 238, 239, 240, 241, 242, 243, 244, 245, 246, 247, 248, 249, 250, 251, 252
 253, 254, 255
*Elset, elset=soil-up-after-pore-bc-edge, instance=soil-1
    1,    2,    3,    4,    5,    6,    7,    8,   16,   24,   32,   40,   48,   56,   64,   72
   80,   88,   96,  104,  112,  120,  128,  136,  144,  152,  160,  168,  176,  184,  192,  200
  208,  216,  224,  232,  240,  248,  256,  264,  272,  280,  281,  282,  283,  284,  285,  286
  287,  288,  565,  588,  611,  634,  657,  680,  703,  726,  727,  728,  729,  730,  731,  732
  733,  734,  735,  736,  737,  738,  739,  740,  741,  742,  743,  744,  745,  746,  747,  748
  760,  772,  784,  796,  808,  820,  832,  844,  856,  868,  880,  892,  904,  916,  928,  940
  952,  964,  976,  988, 1000, 1012, 1024, 1036, 1048, 1060, 1072, 1084, 1096, 1108, 1120, 1132
 1144, 1156, 1168, 1180, 1193, 1194, 1195, 1196, 1197, 1198, 1199, 1200, 1220, 1240, 1260, 1280
 1300, 1320, 1340, 1360, 1380, 1400, 1420, 1440, 1460, 1480, 1500, 1520, 1540, 1560, 1580, 1600
 1620, 1640
*Nset, nset=soil-up-before-pore-bc-edge, instance=soil-1
   1,   4,   6,   7,  58,  59,  60,  61,  62,  63,  64,  65,  66,  67,  68,  69
  70,  71,  72,  73,  74,  75,  76,  77,  78,  79,  80,  81,  82,  83,  84,  85
  86,  87,  88,  89,  90,  91,  92,  93,  94,  95,  96,  97,  98,  99, 100, 101
 102, 103, 104, 105, 106, 107, 108, 109, 110, 111, 112, 113, 114, 234, 235, 236
 237, 238, 239, 240, 241, 242, 243, 244, 245, 246, 247, 248, 249, 250, 251, 252
 253, 254, 255
*Elset, elset=soil-up-before-pore-bc-edge, instance=soil-1
    1,    9,   17,   25,   33,   41,   49,   57,   65,   73,   81,   89,   97,  105,  113,  121
  129,  137,  145,  153,  161,  169,  177,  185,  193,  201,  209,  217,  225,  233,  241,  249
  257,  265,  273,  281,  726,  727,  728,  729,  730,  731,  732,  733,  734,  735,  736,  737
  738,  739,  740,  741,  742,  743,  744,  745,  746,  747,  748, 1200, 1220, 1240, 1260, 1280
 1300, 1320, 1340, 1360, 1380, 1400, 1420, 1440, 1460, 1480, 1500, 1520, 1540, 1560, 1580, 1600
 1620, 1640
*Elset, elset=xfem-ele-set, instance=soil-1, generate
    1,  1640,     1
*Elset, elset=_rock-master_S1, internal, instance=rock-1, generate
  1,  41,   1
*Surface, type=ELEMENT, name=rock-master
_rock-master_S1, S1
*Elset, elset=_rock-up-bc-edge_S1, internal, instance=rock-1, generate
  1,  41,   1
*Surface, type=ELEMENT, name=rock-up-bc-edge
_rock-up-bc-edge_S1, S1
*Elset, elset=_soil-slave_S1, internal, instance=soil-1, generate
 289,  311,    1
*Elset, elset=_soil-slave_S4, internal, instance=soil-1
  749,  761,  773,  785,  797,  809,  821,  833,  845,  857,  869,  881,  893,  905,  917,  929
  941,  953,  965,  977,  989, 1001, 1013, 1025, 1037, 1049, 1061, 1073, 1085, 1097, 1109, 1121
 1133, 1145, 1157, 1169, 1181, 1201, 1221, 1241, 1261, 1281, 1301, 1321, 1341, 1361, 1381, 1401
 1421, 1441, 1461, 1481, 1501, 1521, 1541, 1561, 1581, 1601, 1621
*Surface, type=ELEMENT, name=soil-slave
_soil-slave_S1, S1
_soil-slave_S4, S4
*Nset, nset=soil-bottom-pore-bc-edge_PP_, internal, instance=soil-1
   5,   8, 134, 135, 136, 137, 138, 139, 140, 141, 142, 143, 144, 145, 146, 147
 148, 149, 150, 151, 152, 153, 154, 155, 156, 157, 158, 159, 160, 161, 162, 163
 164, 165, 166, 167, 168, 169, 170, 171, 172, 173, 174, 175, 176, 177, 178, 179
 180, 181, 182, 183, 184, 185, 186, 187, 188, 189, 190, 191, 192, 193, 194, 195
 196, 197, 198, 199, 200, 201, 202, 203, 204, 205, 206, 207, 208, 209, 210, 211
 212, 213, 214
*Nset, nset=soil-left-pore-bc-edge_PP_, internal, instance=soil-1
   7,   8, 115, 116, 117, 118, 119, 120, 121, 122, 123, 124, 125, 126, 127, 128
 129, 130, 131, 132, 133
*Nset, nset=soil-right-pore-bc-edge_PP_, internal, instance=soil-1
   5,   6, 215, 216, 217, 218, 219, 220, 221, 222, 223, 224, 225, 226, 227, 228
 229, 230, 231, 232, 233
*Nset, nset=soil-up-before-pore-bc-edge_PP_, internal, instance=soil-1
   1,   4,   6,   7,  58,  59,  60,  61,  62,  63,  64,  65,  66,  67,  68,  69
  70,  71,  72,  73,  74,  75,  76,  77,  78,  79,  80,  81,  82,  83,  84,  85
  86,  87,  88,  89,  90,  91,  92,  93,  94,  95,  96,  97,  98,  99, 100, 101
 102, 103, 104, 105, 106, 107, 108, 109, 110, 111, 112, 113, 114, 234, 235, 236
 237, 238, 239, 240, 241, 242, 243, 244, 245, 246, 247, 248, 249, 250, 251, 252
 253, 254, 255
*Nset, nset=soil-up-after-pore-bc-edge_PP_, internal, instance=soil-1
   1,   2,   3,   4,   6,   7,   9,  10,  11,  12,  13,  14,  15,  16,  17,  18
  19,  20,  21,  22,  23,  24,  25,  26,  27,  28,  29,  30,  31,  32,  33,  34
  35,  36,  37,  38,  39,  40,  41,  42,  43,  44,  45,  46,  47,  48,  49,  50
  51,  52,  53,  54,  55,  56,  57,  93,  94,  95,  96,  97,  98,  99, 100, 101
 102, 103, 104, 105, 106, 107, 108, 109, 110, 111, 112, 113, 114, 234, 235, 236
 237, 238, 239, 240, 241, 242, 243, 244, 245, 246, 247, 248, 249, 250, 251, 252
 253, 254, 255
*Enrichment, name=Crack-1, type=PROPAGATION CRACK, elset=soil-1.soil, interaction=IntProp-1
*End Assembly
*Amplitude, name=volumerate
             0.,              0.,             25.,           -200.,             50.,           -250.
** 
** MATERIALS
** 
*Material, name=soil
*Damage Initiation, criterion=MAXPS, position=CRACKTIP, tolerance=0.1
200000.,
*Damage Evolution, type=ENERGY, mixed mode behavior=POWER LAW, power=1.
10000.,10000.,10000.
*Damage Stabilization
0.0001
*Density
1616.,
*Elastic
 5e+07, 0.3
*Fluid Leakoff
 5.879e-16, 5.879e-16
*Gap Flow
 1e-06,
*Permeability, specific=10000.
 2.418e-05,0.
** 
** INTERACTION PROPERTIES
** 
*Surface Interaction, name=IntProp-1
1.,
*Surface Interaction, name=IntProp-2
1.,
*Friction
0.,
*Surface Behavior, pressure-overclosure=HARD
*Initial Conditions, type=ENRICHMENT
soil-1.761, 1,Crack-1, 0.5, -1.
soil-1.761, 2,Crack-1, 0.497736, 0.
soil-1.761, 3,Crack-1, -0.500566, 0.
soil-1.761, 4,Crack-1, -0.5, -1.
** 
** BOUNDARY CONDITIONS
*Boundary, phantom=node
soil-1.190, 2,2
soil-1.191, 2,2
** 
** Name: left-bc Type: Displacement/Rotation
*Boundary
left-bc-edge, 1, 1
left-bc-edge, 2, 2
** Name: right-bc Type: Displacement/Rotation
*Boundary
right-bc-edge, 1, 1
right-bc-edge, 2, 2
** Name: rock-bottom-bc Type: Displacement/Rotation
*Boundary
rock-bottom-bc-edge, 1, 1
rock-bottom-bc-edge, 2, 2
** Name: rock-up-bc Type: Displacement/Rotation
*Boundary
rock-up-bc-edge, 1, 1
rock-up-bc-edge, 2, 2
** 
** PREDEFINED FIELDS
** 
** Name: geo-rock   Type: Geostatic stress
*Initial Conditions, type=STRESS, GEOSTATIC
rock-1.rock, -323200., 0., -404000., -5., 0.35, 0.35
** Name: geo-soil   Type: Geostatic stress
*Initial Conditions, type=STRESS, GEOSTATIC
soil-1.soil, 0., 20., -323200., 0., 0.35, 0.35
** Name: pore   Type: Pore pressure Using Field: AnalyticalField-1
*Initial Conditions, TYPE=PORE PRESSURE
soil-1.1, 0.
soil-1.2, 80000.
soil-1.3, 80000.
soil-1.4, 0.
soil-1.5, 200000.
soil-1.6, 0.
soil-1.7, 0.
soil-1.8, 200000.
soil-1.9, 10000.
soil-1.10, 20000.
soil-1.11, 30000.
soil-1.12, 40000.
soil-1.13, 50000.
soil-1.14, 60000.
soil-1.15, 70000.
soil-1.16, 80000.
soil-1.17, 80000.
soil-1.18, 80000.
soil-1.19, 80000.
soil-1.20, 80000.
** ... 1723 like lines cut
** Name: void-rock   Type: Void ratio
*Initial Conditions, TYPE=RATIO
rock-1.rock, 0.001
** Name: void-soil   Type: Void ratio
*Initial Conditions, TYPE=RATIO
soil-1.soil, 0.64
** 
** INTERACTIONS
** 
** Interaction: Int-1
*Contact Pair, interaction=IntProp-2, type=SURFACE TO SURFACE
soil-slave, rock-master
** ----------------------------------------------------------------
** 
** STEP: gravity
** 
*Step, name=gravity, nlgeom=YES, unsymm=YES
*Geostatic
** 
** BOUNDARY CONDITIONS
** 
** Name: bottom-pore-bc Type: Pore pressure
*Boundary
soil-bottom-pore-bc-edge_PP_, 8, 8, 200000.
** Name: left-pore-bc Type: Pore pressure Using Analytical Field: AnalyticalField-1
*Boundary
soil-1.7, 8, 8, 0.
soil-1.8, 8, 8, 200000.
soil-1.115, 8, 8, 10000.
soil-1.116, 8, 8, 20000.
soil-1.117, 8, 8, 30000.
soil-1.118, 8, 8, 40000.
soil-1.119, 8, 8, 50000.
soil-1.120, 8, 8, 60000.
soil-1.121, 8, 8, 70000.
soil-1.122, 8, 8, 80000.
soil-1.123, 8, 8, 90000.
soil-1.124, 8, 8, 100000.
soil-1.125, 8, 8, 110000.
soil-1.126, 8, 8, 120000.
soil-1.127, 8, 8, 130000.
soil-1.128, 8, 8, 140000.
soil-1.129, 8, 8, 150000.
soil-1.130, 8, 8, 160000.
soil-1.131, 8, 8, 170000.
soil-1.132, 8, 8, 180000.
soil-1.133, 8, 8, 190000.
** Name: right-pore-bc Type: Pore pressure Using Analytical Field: AnalyticalField-1
*Boundary
soil-1.5, 8, 8, 200000.
soil-1.6, 8, 8, 0.
soil-1.215, 8, 8, 190000.
soil-1.216, 8, 8, 180000.
soil-1.217, 8, 8, 170000.
soil-1.218, 8, 8, 160000.
soil-1.219, 8, 8, 150000.
soil-1.220, 8, 8, 140000.
soil-1.221, 8, 8, 130000.
soil-1.222, 8, 8, 120000.
soil-1.223, 8, 8, 110000.
soil-1.224, 8, 8, 100000.
soil-1.225, 8, 8, 90000.
soil-1.226, 8, 8, 80000.
soil-1.227, 8, 8, 70000.
soil-1.228, 8, 8, 60000.
soil-1.229, 8, 8, 50000.
soil-1.230, 8, 8, 40000.
soil-1.231, 8, 8, 30000.
soil-1.232, 8, 8, 20000.
soil-1.233, 8, 8, 10000.
** Name: up-pore-bc Type: Pore pressure
*Boundary
soil-up-before-pore-bc-edge_PP_, 8, 8
** 
** LOADS
** 
** Name: gravity   Type: Gravity
*Dload
gravity, GRAV, 10., 0., -1.
** 
** OUTPUT REQUESTS
** 
*Restart, write, frequency=0
** 
** FIELD OUTPUT: F-Output-1
** 
*Output, field
*Node Output
CF, PHILSM, POR, PSILSM, RF, U
*Element Output, directions=YES
LE, S, SAT, VOIDR
*Contact Output
CDISP, CSTRESS
*element output,elset=xfem-ele-set
PFOPENXFEM
PORPRES
PFOPENXFEMCOMP
PORPRESCOMP
** 
** HISTORY OUTPUT: H-Output-1
** 
*Output, history, variable=PRESELECT
*End Step
** ----------------------------------------------------------------
** 
** STEP: execavation
** 
*Step, name=execavation, nlgeom=YES, unsymm=YES
*Soils, consolidation, end=PERIOD, utol=1e+09
1., 1., 1e-12, 1., 
** 
** BOUNDARY CONDITIONS
** 
** Name: bottom-pore-bc Type: Pore pressure
*Boundary, op=NEW
** Name: exe-bottom-pore-bc Type: Pore pressure
*Boundary, op=NEW
soil-bottom-pore-bc-edge_PP_, 8, 8, 200000.
** Name: exe-left-pore-bc Type: Pore pressure Using Analytical Field: AnalyticalField-1
*Boundary, op=NEW
soil-1.7, 8, 8, 0.
soil-1.8, 8, 8, 200000.
soil-1.115, 8, 8, 10000.
soil-1.116, 8, 8, 20000.
soil-1.117, 8, 8, 30000.
soil-1.118, 8, 8, 40000.
soil-1.119, 8, 8, 50000.
soil-1.120, 8, 8, 60000.
soil-1.121, 8, 8, 70000.
soil-1.122, 8, 8, 80000.
soil-1.123, 8, 8, 90000.
soil-1.124, 8, 8, 100000.
soil-1.125, 8, 8, 110000.
soil-1.126, 8, 8, 120000.
soil-1.127, 8, 8, 130000.
soil-1.128, 8, 8, 140000.
soil-1.129, 8, 8, 150000.
soil-1.130, 8, 8, 160000.
soil-1.131, 8, 8, 170000.
soil-1.132, 8, 8, 180000.
soil-1.133, 8, 8, 190000.
** Name: exe-right-pore-bc Type: Pore pressure Using Analytical Field: AnalyticalField-1
*Boundary, op=NEW
soil-1.5, 8, 8, 200000.
soil-1.6, 8, 8, 0.
soil-1.215, 8, 8, 190000.
soil-1.216, 8, 8, 180000.
soil-1.217, 8, 8, 170000.
soil-1.218, 8, 8, 160000.
soil-1.219, 8, 8, 150000.
soil-1.220, 8, 8, 140000.
soil-1.221, 8, 8, 130000.
soil-1.222, 8, 8, 120000.
soil-1.223, 8, 8, 110000.
soil-1.224, 8, 8, 100000.
soil-1.225, 8, 8, 90000.
soil-1.226, 8, 8, 80000.
soil-1.227, 8, 8, 70000.
soil-1.228, 8, 8, 60000.
soil-1.229, 8, 8, 50000.
soil-1.230, 8, 8, 40000.
soil-1.231, 8, 8, 30000.
soil-1.232, 8, 8, 20000.
soil-1.233, 8, 8, 10000.
** Name: exe-up-pore-bc Type: Pore pressure
*Boundary, op=NEW
soil-up-before-pore-bc-edge_PP_, 8, 8
** Name: left-bc Type: Displacement/Rotation
*Boundary, op=NEW
left-bc-edge, 1, 1
left-bc-edge, 2, 2
** Name: left-pore-bc Type: Pore pressure Using Analytical Field: AnalyticalField-1
*Boundary, op=NEW
** Name: left-prop Type: Displacement/Rotation
*Boundary, op=NEW
left-prop-edge, 2, 2
** Name: right-bc Type: Displacement/Rotation
*Boundary, op=NEW
right-bc-edge, 1, 1
right-bc-edge, 2, 2
** Name: right-pore-bc Type: Pore pressure Using Analytical Field: AnalyticalField-1
*Boundary, op=NEW
** Name: right-prop Type: Displacement/Rotation
*Boundary, op=NEW
right-prop-edge, 2, 2
** Name: rock-bottom-bc Type: Displacement/Rotation
*Boundary, op=NEW
rock-bottom-bc-edge, 1, 1
rock-bottom-bc-edge, 2, 2
** Name: rock-up-bc Type: Displacement/Rotation
*Boundary, op=NEW
rock-up-bc-edge, 1, 1
rock-up-bc-edge, 2, 2
** Name: up-pore-bc Type: Pore pressure
*Boundary, op=NEW
** 
** INTERACTIONS
** 
** Interaction: excavation
*Model Change, remove
excavation-face, 
** 
** OUTPUT REQUESTS
** 
*Restart, write, frequency=0
** 
** FIELD OUTPUT: F-Output-1
** 
*Output, field
*Node Output
CF, PHILSM, POR, PSILSM, RF, U
*Element Output, directions=YES
LE, S, SAT, VOIDR
*Contact Output
CDISP, CSTRESS
*element output,elset=xfem-ele-set
PFOPENXFEM
PORPRES
PFOPENXFEMCOMP
PORPRESCOMP
** 
** HISTORY OUTPUT: H-Output-1
** 
*Output, history, variable=PRESELECT
*End Step
** ----------------------------------------------------------------
** 
** STEP: pore-balance
** 
*Step, name=pore-balance, nlgeom=YES, unsymm=YES
*Soils, consolidation, end=PERIOD, utol=1e+09
0.05, 1., 1e-12, 1., 
** 
** BOUNDARY CONDITIONS
** 
** Name: after-exe-up-pore-bc Type: Pore pressure
*Boundary
soil-up-after-pore-bc-edge_PP_, 8, 8
** 
** OUTPUT REQUESTS
** 
*Restart, write, frequency=0
** 
** FIELD OUTPUT: F-Output-1
** 
*Output, field
*Node Output
CF, PHILSM, POR, PSILSM, RF, U
*Element Output, directions=YES
LE, S, SAT, VOIDR
*Contact Output
CDISP, CSTRESS
*element output,elset=xfem-ele-set
PFOPENXFEM
PORPRES
PFOPENXFEMCOMP
PORPRESCOMP
** 
** HISTORY OUTPUT: H-Output-1
** 
*Output, history, variable=PRESELECT
*End Step
** ----------------------------------------------------------------
** 
** STEP: injection
** 
*Step, name=injection, nlgeom=YES, unsymm=YES
*Soils, consolidation, end=PERIOD, utol=1e+09,stabilize=0.0002, allsdtol=0.05, continue=NO
0.05, 100., 1e-12, 5., 
*cflow,amplitude=volumerate,phantom=edge
soil-1.190, soil-1.191, 5e-05
** 
** BOUNDARY CONDITIONS
** 
** Name: prop_bc Type: Displacement/Rotation
*Boundary
soil-up-after-pore-bc-edge, 1, 1
soil-up-after-pore-bc-edge, 2, 2
** 
** CONTROLS
** 
*Controls, reset
*Controls, analysis=discontinuous
*Controls, parameters=time incrementation
, , , , , , , 20, , , 
** 
** OUTPUT REQUESTS
** 
*Restart, write, frequency=0
** 
** FIELD OUTPUT: F-Output-1
** 
*Output, field
*Node Output
CF, PHILSM, POR, PSILSM, RF, U
*Element Output, directions=YES
LE, S, SAT, VOIDR
*Contact Output
CDISP, CSTRESS
*element output,elset=xfem-ele-set
PFOPENXFEM
PORPRES
PFOPENXFEMCOMP
PORPRESCOMP
** 
** HISTORY OUTPUT: H-Output-1
** 
*Output, history, variable=PRESELECT
*End Step
** ----------------------------------------------------------------
** 
** STEP: injection_1
** 
*Step, name=injection_1, nlgeom=YES, unsymm=YES
*Soils, consolidation, end=PERIOD, utol=1e+09,stabilize=0.0002, allsdtol=0.05, continue=NO
0.05, 100., 1e-12, 5., 
*cflow,amplitude=volumerate,phantom=edge
soil-1.190, soil-1.191, 5e-05
** 
** BOUNDARY CONDITIONS
** 
** Name: prop_bc Type: Displacement/Rotation
*Boundary
soil-up-after-pore-bc-edge, 1, 1
soil-up-after-pore-bc-edge, 2, 2
** 
** CONTROLS
** 
*Controls, reset
*Controls, analysis=discontinuous
*Controls, parameters=time incrementation
, , , , , , , 20, , , 
** 
** OUTPUT REQUESTS
** 
*Restart, write, frequency=0
** 
** FIELD OUTPUT: F-Output-1
** 
*Output, field
*Node Output
CF, PHILSM, POR, PSILSM, RF, U
*Element Output, directions=YES
LE, S, SAT, VOIDR
*Contact Output
CDISP, CSTRESS
*element output,elset=xfem-ele-set
PFOPENXFEM
PORPRES
PFOPENXFEMCOMP
PORPRESCOMP
** 
** HISTORY OUTPUT: H-Output-1
** 
*Output, history, variable=PRESELECT
*End Step
